MODEL 1
REMARK VINA RESULT:      -8.7      0.000      0.000
REMARK  3 active torsions:
REMARK  status: ('A' for Active; 'I' for Inactive)
REMARK    1  A    between atoms: O_2  and  C_17 
REMARK    2  A    between atoms: O_3  and  C_19 
REMARK    3  A    between atoms: C_20  and  C_21 
ROOT
HETATM    1  O   UNK N   1      13.700  12.587  14.258  0.00  0.00    -0.292 OA
HETATM    2  C   UNK N   1      16.995  11.155  14.838  0.00  0.00     0.013 C 
HETATM    3  C   UNK N   1      16.958  10.072  13.682  0.00  0.00    -0.008 C 
HETATM    4  C   UNK N   1      17.934  10.866  16.086  0.00  0.00    -0.043 C 
HETATM    5  C   UNK N   1      18.441   9.687  13.362  0.00  0.00     0.014 C 
HETATM    6  C   UNK N   1      19.334  10.452  15.569  0.00  0.00     0.009 C 
HETATM    7  C   UNK N   1      19.268   9.289  14.587  0.00  0.00     0.002 C 
HETATM    8  C   UNK N   1      15.571  11.590  15.251  0.00  0.00     0.090 C 
HETATM    9  C   UNK N   1      16.225  10.712  12.455  0.00  0.00     0.000 A 
HETATM   10  C   UNK N   1      16.162   8.785  14.018  0.00  0.00     0.021 C 
HETATM   11  C   UNK N   1      18.137  12.164  16.914  0.00  0.00     0.015 C 
HETATM   12  C   UNK N   1      17.389   9.800  17.073  0.00  0.00     0.015 C 
HETATM   13  C   UNK N   1      15.161  11.631  12.686  0.00  0.00     0.020 A 
HETATM   14  C   UNK N   1      14.747  11.985  14.068  0.00  0.00     0.160 C 
HETATM   15  C   UNK N   1      16.524  10.366  11.103  0.00  0.00     0.107 A 
HETATM   16  C   UNK N   1      14.464  12.196  11.605  0.00  0.00     0.026 A 
HETATM   17  C   UNK N   1      15.804  10.940  10.038  0.00  0.00     0.108 A 
HETATM   18  C   UNK N   1      14.782  11.871  10.283  0.00  0.00    -0.018 A 
ENDROOT
BRANCH  18  19
HETATM   19  C   UNK N   1      14.017  12.503   9.126  0.00  0.00     0.013 C 
HETATM   20  C   UNK N   1      14.559  13.901   8.807  0.00  0.00     0.015 C 
HETATM   21  C   UNK N   1      12.514  12.541   9.419  0.00  0.00     0.015 C 
ENDBRANCH  18  19
BRANCH  17  22
HETATM   22  O   UNK N   1      16.088  10.573   8.768  0.00  0.00    -0.353 OA
HETATM   23  C   UNK N   1      17.103  11.189   8.064  0.00  0.00     0.210 C 
ENDBRANCH  17  22
BRANCH  15  24
HETATM   24  O   UNK N   1      17.494   9.473  10.815  0.00  0.00    -0.357 OA
HETATM   25  H   UNK N   1      17.429   8.529  11.012  0.00  0.00     0.218 HD
ENDBRANCH  15  24
TORSDOF 3
ENDMDL
MODEL 2
REMARK VINA RESULT:      -8.2      1.504      6.633
REMARK  3 active torsions:
REMARK  status: ('A' for Active; 'I' for Inactive)
REMARK    1  A    between atoms: O_2  and  C_17 
REMARK    2  A    between atoms: O_3  and  C_19 
REMARK    3  A    between atoms: C_20  and  C_21 
ROOT
HETATM    1  O   UNK N   1      18.016   9.860  10.574  0.00  0.00    -0.292 OA
HETATM    2  C   UNK N   1      15.223  12.139  11.073  0.00  0.00     0.013 C 
HETATM    3  C   UNK N   1      14.772  11.607  12.496  0.00  0.00    -0.008 C 
HETATM    4  C   UNK N   1      14.123  12.845  10.171  0.00  0.00    -0.043 C 
HETATM    5  C   UNK N   1      13.944  12.749  13.176  0.00  0.00     0.014 C 
HETATM    6  C   UNK N   1      13.379  13.900  11.028  0.00  0.00     0.009 C 
HETATM    7  C   UNK N   1      12.811  13.307  12.311  0.00  0.00     0.002 C 
HETATM    8  C   UNK N   1      16.031  11.071  10.302  0.00  0.00     0.090 C 
HETATM    9  C   UNK N   1      16.066  11.244  13.299  0.00  0.00     0.000 A 
HETATM   10  C   UNK N   1      13.920  10.312  12.470  0.00  0.00     0.021 C 
HETATM   11  C   UNK N   1      14.803  13.621   9.010  0.00  0.00     0.015 C 
HETATM   12  C   UNK N   1      13.107  11.877   9.511  0.00  0.00     0.015 C 
HETATM   13  C   UNK N   1      17.190  10.718  12.600  0.00  0.00     0.020 A 
HETATM   14  C   UNK N   1      17.146  10.515  11.129  0.00  0.00     0.160 C 
HETATM   15  C   UNK N   1      16.155  11.347  14.720  0.00  0.00     0.107 A 
HETATM   16  C   UNK N   1      18.354  10.352  13.298  0.00  0.00     0.026 A 
HETATM   17  C   UNK N   1      17.330  10.965  15.397  0.00  0.00     0.108 A 
HETATM   18  C   UNK N   1      18.441  10.482  14.687  0.00  0.00    -0.018 A 
ENDROOT
BRANCH  18  19
HETATM   19  C   UNK N   1      19.716  10.087  15.422  0.00  0.00     0.013 C 
HETATM   20  C   UNK N   1      20.588  11.316  15.711  0.00  0.00     0.015 C 
HETATM   21  C   UNK N   1      20.493   9.024  14.639  0.00  0.00     0.015 C 
ENDBRANCH  18  19
BRANCH  17  22
HETATM   22  O   UNK N   1      17.377  11.047  16.745  0.00  0.00    -0.353 OA
HETATM   23  C   UNK N   1      17.095   9.948  17.531  0.00  0.00     0.210 C 
ENDBRANCH  17  22
BRANCH  15  24
HETATM   24  O   UNK N   1      15.113  11.801  15.448  0.00  0.00    -0.357 OA
HETATM   25  H   UNK N   1      14.833  12.726  15.464  0.00  0.00     0.218 HD
ENDBRANCH  15  24
TORSDOF 3
ENDMDL
MODEL 3
REMARK VINA RESULT:      -8.1      3.075      5.747
REMARK  3 active torsions:
REMARK  status: ('A' for Active; 'I' for Inactive)
REMARK    1  A    between atoms: O_2  and  C_17 
REMARK    2  A    between atoms: O_3  and  C_19 
REMARK    3  A    between atoms: C_20  and  C_21 
ROOT
HETATM    1  O   UNK N   1      16.766  10.968  12.735  0.00  0.00    -0.292 OA
HETATM    2  C   UNK N   1      13.404  11.681  11.538  0.00  0.00     0.013 C 
HETATM    3  C   UNK N   1      13.740  13.019  10.759  0.00  0.00    -0.008 C 
HETATM    4  C   UNK N   1      11.918  11.490  12.064  0.00  0.00    -0.043 C 
HETATM    5  C   UNK N   1      12.597  13.243   9.711  0.00  0.00     0.014 C 
HETATM    6  C   UNK N   1      10.937  11.805  10.907  0.00  0.00     0.009 C 
HETATM    7  C   UNK N   1      11.184  13.179  10.296  0.00  0.00     0.002 C 
HETATM    8  C   UNK N   1      14.464  11.377  12.621  0.00  0.00     0.090 C 
HETATM    9  C   UNK N   1      15.143  12.839  10.087  0.00  0.00     0.000 A 
HETATM   10  C   UNK N   1      13.863  14.281  11.650  0.00  0.00     0.021 C 
HETATM   11  C   UNK N   1      11.675  10.006  12.454  0.00  0.00     0.015 C 
HETATM   12  C   UNK N   1      11.560  12.333  13.316  0.00  0.00     0.015 C 
HETATM   13  C   UNK N   1      16.135  12.065  10.755  0.00  0.00     0.020 A 
HETATM   14  C   UNK N   1      15.852  11.432  12.069  0.00  0.00     0.160 C 
HETATM   15  C   UNK N   1      15.507  13.474   8.861  0.00  0.00     0.107 A 
HETATM   16  C   UNK N   1      17.414  11.912  10.193  0.00  0.00     0.026 A 
HETATM   17  C   UNK N   1      16.798  13.312   8.324  0.00  0.00     0.108 A 
HETATM   18  C   UNK N   1      17.752  12.517   8.979  0.00  0.00    -0.018 A 
ENDROOT
BRANCH  18  19
HETATM   19  C   UNK N   1      19.144  12.331   8.383  0.00  0.00     0.013 C 
HETATM   20  C   UNK N   1      19.629  10.887   8.559  0.00  0.00     0.015 C 
HETATM   21  C   UNK N   1      20.136  13.330   8.987  0.00  0.00     0.015 C 
ENDBRANCH  18  19
BRANCH  17  22
HETATM   22  O   UNK N   1      17.126  13.948   7.177  0.00  0.00    -0.353 OA
HETATM   23  C   UNK N   1      17.185  13.262   5.980  0.00  0.00     0.210 C 
ENDBRANCH  17  22
BRANCH  15  24
HETATM   24  O   UNK N   1      14.627  14.252   8.197  0.00  0.00    -0.357 OA
HETATM   25  H   UNK N   1      14.564  15.209   8.314  0.00  0.00     0.218 HD
ENDBRANCH  15  24
TORSDOF 3
ENDMDL
MODEL 4
REMARK VINA RESULT:      -7.9      2.514      6.359
REMARK  3 active torsions:
REMARK  status: ('A' for Active; 'I' for Inactive)
REMARK    1  A    between atoms: O_2  and  C_17 
REMARK    2  A    between atoms: O_3  and  C_19 
REMARK    3  A    between atoms: C_20  and  C_21 
ROOT
HETATM    1  O   UNK N   1      16.146  13.545  12.498  0.00  0.00    -0.292 OA
HETATM    2  C   UNK N   1      13.559  10.985  12.492  0.00  0.00     0.013 C 
HETATM    3  C   UNK N   1      14.485   9.753  12.864  0.00  0.00    -0.008 C 
HETATM    4  C   UNK N   1      12.224  10.684  11.687  0.00  0.00    -0.043 C 
HETATM    5  C   UNK N   1      13.556   8.638  13.451  0.00  0.00     0.014 C 
HETATM    6  C   UNK N   1      11.472   9.524  12.388  0.00  0.00     0.009 C 
HETATM    7  C   UNK N   1      12.351   8.292  12.572  0.00  0.00     0.002 C 
HETATM    8  C   UNK N   1      14.379  12.141  11.876  0.00  0.00     0.090 C 
HETATM    9  C   UNK N   1      15.549  10.253  13.897  0.00  0.00     0.000 A 
HETATM   10  C   UNK N   1      15.295   9.164  11.681  0.00  0.00     0.021 C 
HETATM   11  C   UNK N   1      11.279  11.915  11.741  0.00  0.00     0.015 C 
HETATM   12  C   UNK N   1      12.431  10.359  10.185  0.00  0.00     0.015 C 
HETATM   13  C   UNK N   1      16.044  11.585  13.792  0.00  0.00     0.020 A 
HETATM   14  C   UNK N   1      15.560  12.495  12.722  0.00  0.00     0.160 C 
HETATM   15  C   UNK N   1      16.109   9.414  14.907  0.00  0.00     0.107 A 
HETATM   16  C   UNK N   1      17.023  12.052  14.684  0.00  0.00     0.026 A 
HETATM   17  C   UNK N   1      17.096   9.903  15.783  0.00  0.00     0.108 A 
HETATM   18  C   UNK N   1      17.546  11.230  15.687  0.00  0.00    -0.018 A 
ENDROOT
BRANCH  18  19
HETATM   19  C   UNK N   1      18.602  11.761  16.650  0.00  0.00     0.013 C 
HETATM   20  C   UNK N   1      18.285  13.199  17.077  0.00  0.00     0.015 C 
HETATM   21  C   UNK N   1      20.003  11.657  16.037  0.00  0.00     0.015 C 
ENDBRANCH  18  19
BRANCH  17  22
HETATM   22  O   UNK N   1      17.630   9.079  16.712  0.00  0.00    -0.353 OA
HETATM   23  C   UNK N   1      17.288   9.198  18.044  0.00  0.00     0.210 C 
ENDBRANCH  17  22
BRANCH  15  24
HETATM   24  O   UNK N   1      15.714   8.130  15.037  0.00  0.00    -0.357 OA
HETATM   25  H   UNK N   1      16.186   7.475  15.567  0.00  0.00     0.218 HD
ENDBRANCH  15  24
TORSDOF 3
ENDMDL
MODEL 5
REMARK VINA RESULT:      -7.6      2.279      3.147
REMARK  3 active torsions:
REMARK  status: ('A' for Active; 'I' for Inactive)
REMARK    1  A    between atoms: O_2  and  C_17 
REMARK    2  A    between atoms: O_3  and  C_19 
REMARK    3  A    between atoms: C_20  and  C_21 
ROOT
HETATM    1  O   UNK N   1      11.775   9.691  11.389  0.00  0.00    -0.292 OA
HETATM    2  C   UNK N   1      15.057   9.400  12.935  0.00  0.00     0.013 C 
HETATM    3  C   UNK N   1      15.913   9.917  11.705  0.00  0.00    -0.008 C 
HETATM    4  C   UNK N   1      15.772   8.433  13.973  0.00  0.00    -0.043 C 
HETATM    5  C   UNK N   1      17.290  10.401  12.272  0.00  0.00     0.014 C 
HETATM    6  C   UNK N   1      17.134   9.053  14.373  0.00  0.00     0.009 C 
HETATM    7  C   UNK N   1      18.001   9.379  13.162  0.00  0.00     0.002 C 
HETATM    8  C   UNK N   1      13.678   8.872  12.481  0.00  0.00     0.090 C 
HETATM    9  C   UNK N   1      15.108  11.070  11.018  0.00  0.00     0.000 A 
HETATM   10  C   UNK N   1      16.164   8.864  10.596  0.00  0.00     0.021 C 
HETATM   11  C   UNK N   1      14.934   8.335  15.276  0.00  0.00     0.015 C 
HETATM   12  C   UNK N   1      15.972   6.979  13.472  0.00  0.00     0.015 C 
HETATM   13  C   UNK N   1      13.685  11.002  10.993  0.00  0.00     0.020 A 
HETATM   14  C   UNK N   1      12.966   9.858  11.610  0.00  0.00     0.160 C 
HETATM   15  C   UNK N   1      15.733  12.164  10.345  0.00  0.00     0.107 A 
HETATM   16  C   UNK N   1      12.936  12.005  10.355  0.00  0.00     0.026 A 
HETATM   17  C   UNK N   1      14.960  13.151   9.706  0.00  0.00     0.108 A 
HETATM   18  C   UNK N   1      13.557  13.086   9.722  0.00  0.00    -0.018 A 
ENDROOT
BRANCH  18  19
HETATM   19  C   UNK N   1      12.725  14.167   9.043  0.00  0.00     0.013 C 
HETATM   20  C   UNK N   1      11.322  14.248   9.657  0.00  0.00     0.015 C 
HETATM   21  C   UNK N   1      12.659  13.939   7.530  0.00  0.00     0.015 C 
ENDBRANCH  18  19
BRANCH  17  22
HETATM   22  O   UNK N   1      15.578  14.160   9.052  0.00  0.00    -0.353 OA
HETATM   23  C   UNK N   1      16.242  13.932   7.864  0.00  0.00     0.210 C 
ENDBRANCH  17  22
BRANCH  15  24
HETATM   24  O   UNK N   1      17.077  12.268  10.297  0.00  0.00    -0.357 OA
HETATM   25  H   UNK N   1      17.544  12.958   9.807  0.00  0.00     0.218 HD
ENDBRANCH  15  24
TORSDOF 3
ENDMDL
MODEL 6
REMARK VINA RESULT:      -7.5      1.716      6.704
REMARK  3 active torsions:
REMARK  status: ('A' for Active; 'I' for Inactive)
REMARK    1  A    between atoms: O_2  and  C_17 
REMARK    2  A    between atoms: O_3  and  C_19 
REMARK    3  A    between atoms: C_20  and  C_21 
ROOT
HETATM    1  O   UNK N   1      17.654  12.537   9.769  0.00  0.00    -0.292 OA
HETATM    2  C   UNK N   1      14.108  13.313  10.033  0.00  0.00     0.013 C 
HETATM    3  C   UNK N   1      13.635  11.923  10.630  0.00  0.00    -0.008 C 
HETATM    4  C   UNK N   1      13.041  14.165   9.222  0.00  0.00    -0.043 C 
HETATM    5  C   UNK N   1      12.259  12.169  11.337  0.00  0.00     0.014 C 
HETATM    6  C   UNK N   1      11.738  14.252  10.055  0.00  0.00     0.009 C 
HETATM    7  C   UNK N   1      11.220  12.879  10.465  0.00  0.00     0.002 C 
HETATM    8  C   UNK N   1      15.454  13.177   9.286  0.00  0.00     0.090 C 
HETATM    9  C   UNK N   1      14.740  11.432  11.624  0.00  0.00     0.000 A 
HETATM   10  C   UNK N   1      13.473  10.786   9.590  0.00  0.00     0.021 C 
HETATM   11  C   UNK N   1      13.547  15.623   9.043  0.00  0.00     0.015 C 
HETATM   12  C   UNK N   1      12.733  13.633   7.798  0.00  0.00     0.015 C 
HETATM   13  C   UNK N   1      16.106  11.725  11.340  0.00  0.00     0.020 A 
HETATM   14  C   UNK N   1      16.484  12.487  10.122  0.00  0.00     0.160 C 
HETATM   15  C   UNK N   1      14.456  10.637  12.775  0.00  0.00     0.107 A 
HETATM   16  C   UNK N   1      17.123  11.269  12.195  0.00  0.00     0.026 A 
HETATM   17  C   UNK N   1      15.494  10.185  13.611  0.00  0.00     0.108 A 
HETATM   18  C   UNK N   1      16.831  10.514  13.335  0.00  0.00    -0.018 A 
ENDROOT
BRANCH  18  19
HETATM   19  C   UNK N   1      17.951  10.037  14.254  0.00  0.00     0.013 C 
HETATM   20  C   UNK N   1      18.102  10.966  15.464  0.00  0.00     0.015 C 
HETATM   21  C   UNK N   1      19.269   9.901  13.486  0.00  0.00     0.015 C 
ENDBRANCH  18  19
BRANCH  17  22
HETATM   22  O   UNK N   1      15.199   9.410  14.679  0.00  0.00    -0.353 OA
HETATM   23  C   UNK N   1      15.187   8.034  14.573  0.00  0.00     0.210 C 
ENDBRANCH  17  22
BRANCH  15  24
HETATM   24  O   UNK N   1      13.188  10.291  13.080  0.00  0.00    -0.357 OA
HETATM   25  H   UNK N   1      12.563  10.880  13.524  0.00  0.00     0.218 HD
ENDBRANCH  15  24
TORSDOF 3
ENDMDL
MODEL 7
REMARK VINA RESULT:      -7.3      8.380     12.010
REMARK  3 active torsions:
REMARK  status: ('A' for Active; 'I' for Inactive)
REMARK    1  A    between atoms: O_2  and  C_17 
REMARK    2  A    between atoms: O_3  and  C_19 
REMARK    3  A    between atoms: C_20  and  C_21 
ROOT
HETATM    1  O   UNK N   1      26.313   4.064  14.328  0.00  0.00    -0.292 OA
HETATM    2  C   UNK N   1      27.447   7.237  12.951  0.00  0.00     0.013 C 
HETATM    3  C   UNK N   1      26.108   8.053  13.179  0.00  0.00    -0.008 C 
HETATM    4  C   UNK N   1      28.413   7.719  11.787  0.00  0.00    -0.043 C 
HETATM    5  C   UNK N   1      26.486   9.572  13.175  0.00  0.00     0.014 C 
HETATM    6  C   UNK N   1      28.625   9.248  11.919  0.00  0.00     0.009 C 
HETATM    7  C   UNK N   1      27.308  10.014  11.961  0.00  0.00     0.002 C 
HETATM    8  C   UNK N   1      27.181   5.715  12.913  0.00  0.00     0.090 C 
HETATM    9  C   UNK N   1      25.495   7.590  14.543  0.00  0.00     0.000 A 
HETATM   10  C   UNK N   1      25.003   7.804  12.119  0.00  0.00     0.021 C 
HETATM   11  C   UNK N   1      29.812   7.066  11.948  0.00  0.00     0.015 C 
HETATM   12  C   UNK N   1      27.930   7.367  10.356  0.00  0.00     0.015 C 
HETATM   13  C   UNK N   1      25.648   6.232  14.946  0.00  0.00     0.020 A 
HETATM   14  C   UNK N   1      26.380   5.262  14.092  0.00  0.00     0.160 C 
HETATM   15  C   UNK N   1      24.722   8.450  15.381  0.00  0.00     0.107 A 
HETATM   16  C   UNK N   1      25.082   5.780  16.149  0.00  0.00     0.026 A 
HETATM   17  C   UNK N   1      24.157   7.969  16.578  0.00  0.00     0.108 A 
HETATM   18  C   UNK N   1      24.349   6.636  16.976  0.00  0.00    -0.018 A 
ENDROOT
BRANCH  18  19
HETATM   19  C   UNK N   1      23.750   6.126  18.282  0.00  0.00     0.013 C 
HETATM   20  C   UNK N   1      24.015   7.108  19.430  0.00  0.00     0.015 C 
HETATM   21  C   UNK N   1      24.275   4.725  18.614  0.00  0.00     0.015 C 
ENDBRANCH  18  19
BRANCH  17  22
HETATM   22  O   UNK N   1      23.405   8.797  17.338  0.00  0.00    -0.353 OA
HETATM   23  C   UNK N   1      22.118   9.126  16.966  0.00  0.00     0.210 C 
ENDBRANCH  17  22
BRANCH  15  24
HETATM   24  O   UNK N   1      24.505   9.737  15.039  0.00  0.00    -0.357 OA
HETATM   25  H   UNK N   1      25.019  10.478  15.386  0.00  0.00     0.218 HD
ENDBRANCH  15  24
TORSDOF 3
ENDMDL
MODEL 8
REMARK VINA RESULT:      -7.2      1.989      2.928
REMARK  3 active torsions:
REMARK  status: ('A' for Active; 'I' for Inactive)
REMARK    1  A    between atoms: O_2  and  C_17 
REMARK    2  A    between atoms: O_3  and  C_19 
REMARK    3  A    between atoms: C_20  and  C_21 
ROOT
HETATM    1  O   UNK N   1      14.414  13.776  11.870  0.00  0.00    -0.292 OA
HETATM    2  C   UNK N   1      16.061  10.900  13.375  0.00  0.00     0.013 C 
HETATM    3  C   UNK N   1      16.347  10.101  12.038  0.00  0.00    -0.008 C 
HETATM    4  C   UNK N   1      15.940  10.064  14.720  0.00  0.00    -0.043 C 
HETATM    5  C   UNK N   1      17.511   9.098  12.339  0.00  0.00     0.014 C 
HETATM    6  C   UNK N   1      17.147   9.097  14.814  0.00  0.00     0.009 C 
HETATM    7  C   UNK N   1      17.285   8.222  13.574  0.00  0.00     0.002 C 
HETATM    8  C   UNK N   1      14.903  11.908  13.194  0.00  0.00     0.090 C 
HETATM    9  C   UNK N   1      16.724  11.143  10.932  0.00  0.00     0.000 A 
HETATM   10  C   UNK N   1      15.136   9.315  11.474  0.00  0.00     0.021 C 
HETATM   11  C   UNK N   1      16.038  11.010  15.948  0.00  0.00     0.015 C 
HETATM   12  C   UNK N   1      14.611   9.280  14.879  0.00  0.00     0.015 C 
HETATM   13  C   UNK N   1      16.100  12.424  10.947  0.00  0.00     0.020 A 
HETATM   14  C   UNK N   1      15.106  12.775  11.993  0.00  0.00     0.160 C 
HETATM   15  C   UNK N   1      17.618  10.851   9.858  0.00  0.00     0.107 A 
HETATM   16  C   UNK N   1      16.394  13.369   9.949  0.00  0.00     0.026 A 
HETATM   17  C   UNK N   1      17.888  11.812   8.865  0.00  0.00     0.108 A 
HETATM   18  C   UNK N   1      17.291  13.082   8.916  0.00  0.00    -0.018 A 
ENDROOT
BRANCH  18  19
HETATM   19  C   UNK N   1      17.601  14.125   7.849  0.00  0.00     0.013 C 
HETATM   20  C   UNK N   1      17.320  13.576   6.445  0.00  0.00     0.015 C 
HETATM   21  C   UNK N   1      19.044  14.625   7.974  0.00  0.00     0.015 C 
ENDBRANCH  18  19
BRANCH  17  22
HETATM   22  O   UNK N   1      18.716  11.499   7.843  0.00  0.00    -0.353 OA
HETATM   23  C   UNK N   1      20.072  11.348   8.052  0.00  0.00     0.210 C 
ENDBRANCH  17  22
BRANCH  15  24
HETATM   24  O   UNK N   1      18.213   9.643   9.762  0.00  0.00    -0.357 OA
HETATM   25  H   UNK N   1      17.832   8.894   9.285  0.00  0.00     0.218 HD
ENDBRANCH  15  24
TORSDOF 3
ENDMDL
MODEL 9
REMARK VINA RESULT:      -7.1      8.657     12.086
REMARK  3 active torsions:
REMARK  status: ('A' for Active; 'I' for Inactive)
REMARK    1  A    between atoms: O_2  and  C_17 
REMARK    2  A    between atoms: O_3  and  C_19 
REMARK    3  A    between atoms: C_20  and  C_21 
ROOT
HETATM    1  O   UNK N   1      28.691  11.340  15.065  0.00  0.00    -0.292 OA
HETATM    2  C   UNK N   1      28.616   9.234  12.097  0.00  0.00     0.013 C 
HETATM    3  C   UNK N   1      27.908   7.977  12.752  0.00  0.00    -0.008 C 
HETATM    4  C   UNK N   1      29.537   8.981  10.828  0.00  0.00    -0.043 C 
HETATM    5  C   UNK N   1      27.272   7.146  11.587  0.00  0.00     0.014 C 
HETATM    6  C   UNK N   1      28.758   8.102   9.817  0.00  0.00     0.009 C 
HETATM    7  C   UNK N   1      28.239   6.815  10.447  0.00  0.00     0.002 C 
HETATM    8  C   UNK N   1      29.302  10.115  13.165  0.00  0.00     0.090 C 
HETATM    9  C   UNK N   1      26.838   8.507  13.764  0.00  0.00     0.000 A 
HETATM   10  C   UNK N   1      28.843   7.056  13.578  0.00  0.00     0.021 C 
HETATM   11  C   UNK N   1      29.833  10.324  10.107  0.00  0.00     0.015 C 
HETATM   12  C   UNK N   1      30.914   8.342  11.144  0.00  0.00     0.015 C 
HETATM   13  C   UNK N   1      27.103   9.706  14.487  0.00  0.00     0.020 A 
HETATM   14  C   UNK N   1      28.373  10.451  14.288  0.00  0.00     0.160 C 
HETATM   15  C   UNK N   1      25.628   7.809  14.056  0.00  0.00     0.107 A 
HETATM   16  C   UNK N   1      26.176  10.190  15.425  0.00  0.00     0.026 A 
HETATM   17  C   UNK N   1      24.720   8.310  15.008  0.00  0.00     0.108 A 
HETATM   18  C   UNK N   1      24.982   9.512  15.685  0.00  0.00    -0.018 A 
ENDROOT
BRANCH  18  19
HETATM   19  C   UNK N   1      23.987  10.060  16.702  0.00  0.00     0.013 C 
HETATM   20  C   UNK N   1      23.399  11.395  16.232  0.00  0.00     0.015 C 
HETATM   21  C   UNK N   1      24.633  10.190  18.085  0.00  0.00     0.015 C 
ENDBRANCH  18  19
BRANCH  17  22
HETATM   22  O   UNK N   1      23.595   7.613  15.286  0.00  0.00    -0.353 OA
HETATM   23  C   UNK N   1      22.394   7.941  14.690  0.00  0.00     0.210 C 
ENDBRANCH  17  22
BRANCH  15  24
HETATM   24  O   UNK N   1      25.333   6.647  13.436  0.00  0.00    -0.357 OA
HETATM   25  H   UNK N   1      25.871   5.847  13.513  0.00  0.00     0.218 HD
ENDBRANCH  15  24
TORSDOF 3
ENDMDL
