MODEL 1
REMARK VINA RESULT:      -5.7      0.000      0.000
REMARK  0 active torsions:
REMARK  status: ('A' for Active; 'I' for Inactive)
ROOT
HETATM    1 Cl   UNK N   1      11.215  14.311   9.452  0.00  0.00     0.027 Cl
HETATM    2 Cl   UNK N   1      16.616  13.996   9.815  0.00  0.00     0.027 Cl
HETATM    3  O   UNK N   1      13.995  14.349   8.615  0.00  0.00    -0.243 OA
HETATM    4  O   UNK N   1      11.466  13.754  12.289  0.00  0.00    -0.245 OA
HETATM    5  O   UNK N   1      15.926  13.493  12.589  0.00  0.00    -0.245 OA
HETATM    6  N   UNK N   1      12.662  14.063  10.405  0.00  0.00    -0.151 N 
HETATM    7  N   UNK N   1      15.036  13.924  10.566  0.00  0.00    -0.151 N 
HETATM    8  N   UNK N   1      13.692  13.613  12.498  0.00  0.00    -0.258 N 
HETATM    9  C   UNK N   1      13.902  14.122   9.811  0.00  0.00     0.366 A 
HETATM   10  C   UNK N   1      12.562  13.808  11.752  0.00  0.00     0.349 A 
HETATM   11  C   UNK N   1      14.926  13.669  11.911  0.00  0.00     0.349 A 
HETATM   12  H   UNK N   1      13.611  13.419  13.522  0.00  0.00     0.175 HD
ENDROOT
TORSDOF 0
ENDMDL
MODEL 2
REMARK VINA RESULT:      -5.7      0.046      3.324
REMARK  0 active torsions:
REMARK  status: ('A' for Active; 'I' for Inactive)
ROOT
HETATM    1 Cl   UNK N   1      16.654  13.949   9.817  0.00  0.00     0.027 Cl
HETATM    2 Cl   UNK N   1      11.256  14.315   9.452  0.00  0.00     0.027 Cl
HETATM    3  O   UNK N   1      14.036  14.307   8.613  0.00  0.00    -0.243 OA
HETATM    4  O   UNK N   1      15.961  13.493  12.598  0.00  0.00    -0.245 OA
HETATM    5  O   UNK N   1      11.504  13.794  12.297  0.00  0.00    -0.245 OA
HETATM    6  N   UNK N   1      15.074  13.903  10.568  0.00  0.00    -0.151 N 
HETATM    7  N   UNK N   1      12.701  14.063  10.409  0.00  0.00    -0.151 N 
HETATM    8  N   UNK N   1      13.727  13.632  12.507  0.00  0.00    -0.258 N 
HETATM    9  C   UNK N   1      13.941  14.099   9.812  0.00  0.00     0.366 A 
HETATM   10  C   UNK N   1      14.962  13.669  11.918  0.00  0.00     0.349 A 
HETATM   11  C   UNK N   1      12.598  13.829  11.759  0.00  0.00     0.349 A 
HETATM   12  H   UNK N   1      13.647  13.454  13.533  0.00  0.00     0.175 HD
ENDROOT
TORSDOF 0
ENDMDL
MODEL 3
REMARK VINA RESULT:      -5.7      1.648      3.763
REMARK  0 active torsions:
REMARK  status: ('A' for Active; 'I' for Inactive)
ROOT
HETATM    1 Cl   UNK N   1      13.471  12.847  14.013  0.00  0.00     0.027 Cl
HETATM    2 Cl   UNK N   1      11.001  14.390   9.440  0.00  0.00     0.027 Cl
HETATM    3  O   UNK N   1      11.312  13.404  12.154  0.00  0.00    -0.243 OA
HETATM    4  O   UNK N   1      15.799  13.576  12.443  0.00  0.00    -0.245 OA
HETATM    5  O   UNK N   1      13.761  14.851   8.666  0.00  0.00    -0.245 OA
HETATM    6  N   UNK N   1      13.551  13.460  12.377  0.00  0.00    -0.151 N 
HETATM    7  N   UNK N   1      12.466  14.139  10.365  0.00  0.00    -0.151 N 
HETATM    8  N   UNK N   1      14.833  14.227  10.530  0.00  0.00    -0.258 N 
HETATM    9  C   UNK N   1      12.397  13.658  11.653  0.00  0.00     0.366 A 
HETATM   10  C   UNK N   1      14.769  13.747  11.809  0.00  0.00     0.349 A 
HETATM   11  C   UNK N   1      13.689  14.423   9.807  0.00  0.00     0.349 A 
HETATM   12  H   UNK N   1      15.762  14.444  10.102  0.00  0.00     0.175 HD
ENDROOT
TORSDOF 0
ENDMDL
MODEL 4
REMARK VINA RESULT:      -5.7      1.643      2.890
REMARK  0 active torsions:
REMARK  status: ('A' for Active; 'I' for Inactive)
ROOT
HETATM    1 Cl   UNK N   1      11.012  14.346   9.441  0.00  0.00     0.027 Cl
HETATM    2 Cl   UNK N   1      13.492  12.921  14.048  0.00  0.00     0.027 Cl
HETATM    3  O   UNK N   1      11.329  13.429  12.178  0.00  0.00    -0.243 OA
HETATM    4  O   UNK N   1      13.769  14.777   8.646  0.00  0.00    -0.245 OA
HETATM    5  O   UNK N   1      15.817  13.601  12.449  0.00  0.00    -0.245 OA
HETATM    6  N   UNK N   1      12.478  14.114  10.368  0.00  0.00    -0.151 N 
HETATM    7  N   UNK N   1      13.569  13.488  12.393  0.00  0.00    -0.151 N 
HETATM    8  N   UNK N   1      14.847  14.200  10.523  0.00  0.00    -0.258 N 
HETATM    9  C   UNK N   1      12.413  13.666  11.668  0.00  0.00     0.366 A 
HETATM   10  C   UNK N   1      13.700  14.380   9.799  0.00  0.00     0.349 A 
HETATM   11  C   UNK N   1      14.786  13.757  11.815  0.00  0.00     0.349 A 
HETATM   12  H   UNK N   1      15.774  14.403  10.085  0.00  0.00     0.175 HD
ENDROOT
TORSDOF 0
ENDMDL
MODEL 5
REMARK VINA RESULT:      -5.4      3.109      3.715
REMARK  0 active torsions:
REMARK  status: ('A' for Active; 'I' for Inactive)
ROOT
HETATM    1 Cl   UNK N   1      13.346  13.859   7.976  0.00  0.00     0.027 Cl
HETATM    2 Cl   UNK N   1      13.026   9.426  11.082  0.00  0.00     0.027 Cl
HETATM    3  O   UNK N   1      14.012  11.241   9.041  0.00  0.00    -0.243 OA
HETATM    4  O   UNK N   1      11.047  14.580   9.592  0.00  0.00    -0.245 OA
HETATM    5  O   UNK N   1      10.782  10.921  12.157  0.00  0.00    -0.245 OA
HETATM    6  N   UNK N   1      12.567  12.953   9.255  0.00  0.00    -0.151 N 
HETATM    7  N   UNK N   1      12.426  11.005  10.621  0.00  0.00    -0.151 N 
HETATM    8  N   UNK N   1      10.867  12.774  10.904  0.00  0.00    -0.258 N 
HETATM    9  C   UNK N   1      13.043  11.713   9.615  0.00  0.00     0.366 A 
HETATM   10  C   UNK N   1      11.477  13.481   9.904  0.00  0.00     0.349 A 
HETATM   11  C   UNK N   1      11.336  11.540  11.264  0.00  0.00     0.349 A 
HETATM   12  H   UNK N   1      10.038  13.179  11.395  0.00  0.00     0.175 HD
ENDROOT
TORSDOF 0
ENDMDL
MODEL 6
REMARK VINA RESULT:      -5.3      2.142      3.820
REMARK  0 active torsions:
REMARK  status: ('A' for Active; 'I' for Inactive)
ROOT
HETATM    1 Cl   UNK N   1      15.804  12.321   9.992  0.00  0.00     0.027 Cl
HETATM    2 Cl   UNK N   1      10.710  11.311  11.551  0.00  0.00     0.027 Cl
HETATM    3  O   UNK N   1      13.115  11.227   9.926  0.00  0.00    -0.243 OA
HETATM    4  O   UNK N   1      15.754  13.847  12.459  0.00  0.00    -0.245 OA
HETATM    5  O   UNK N   1      11.548  13.014  13.747  0.00  0.00    -0.245 OA
HETATM    6  N   UNK N   1      14.496  12.527  11.136  0.00  0.00    -0.151 N 
HETATM    7  N   UNK N   1      12.257  12.084  11.823  0.00  0.00    -0.151 N 
HETATM    8  N   UNK N   1      13.659  13.464  13.153  0.00  0.00    -0.258 N 
HETATM    9  C   UNK N   1      13.282  11.916  10.920  0.00  0.00     0.366 A 
HETATM   10  C   UNK N   1      14.680  13.302  12.257  0.00  0.00     0.349 A 
HETATM   11  C   UNK N   1      12.450  12.860  12.940  0.00  0.00     0.349 A 
HETATM   12  H   UNK N   1      13.803  14.054  14.003  0.00  0.00     0.175 HD
ENDROOT
TORSDOF 0
ENDMDL
MODEL 7
REMARK VINA RESULT:      -5.3      3.605      4.265
REMARK  0 active torsions:
REMARK  status: ('A' for Active; 'I' for Inactive)
ROOT
HETATM    1 Cl   UNK N   1      13.244   8.422  10.968  0.00  0.00     0.027 Cl
HETATM    2 Cl   UNK N   1      13.051  13.334   8.681  0.00  0.00     0.027 Cl
HETATM    3  O   UNK N   1      13.970  10.636   9.236  0.00  0.00    -0.243 OA
HETATM    4  O   UNK N   1      10.958   9.512  12.384  0.00  0.00    -0.245 OA
HETATM    5  O   UNK N   1      10.798  13.569  10.496  0.00  0.00    -0.245 OA
HETATM    6  N   UNK N   1      12.501   9.999  10.817  0.00  0.00    -0.151 N 
HETATM    7  N   UNK N   1      12.415  12.159   9.812  0.00  0.00    -0.151 N 
HETATM    8  N   UNK N   1      10.829  11.555  11.473  0.00  0.00    -0.258 N 
HETATM    9  C   UNK N   1      13.003  10.919   9.925  0.00  0.00     0.366 A 
HETATM   10  C   UNK N   1      11.412  10.322  11.590  0.00  0.00     0.349 A 
HETATM   11  C   UNK N   1      11.327  12.473  10.589  0.00  0.00     0.349 A 
HETATM   12  H   UNK N   1      10.001  11.796  12.063  0.00  0.00     0.175 HD
ENDROOT
TORSDOF 0
ENDMDL
MODEL 8
REMARK VINA RESULT:      -5.2      7.589      8.562
REMARK  0 active torsions:
REMARK  status: ('A' for Active; 'I' for Inactive)
ROOT
HETATM    1 Cl   UNK N   1      20.890  10.462  14.184  0.00  0.00     0.027 Cl
HETATM    2 Cl   UNK N   1      15.903   8.522  15.051  0.00  0.00     0.027 Cl
HETATM    3  O   UNK N   1      18.345   9.180  13.627  0.00  0.00    -0.243 OA
HETATM    4  O   UNK N   1      20.600  11.145  16.989  0.00  0.00    -0.245 OA
HETATM    5  O   UNK N   1      16.481   9.543  17.706  0.00  0.00    -0.245 OA
HETATM    6  N   UNK N   1      19.537  10.176  15.255  0.00  0.00    -0.151 N 
HETATM    7  N   UNK N   1      17.344   9.323  15.638  0.00  0.00    -0.151 N 
HETATM    8  N   UNK N   1      18.543  10.361  17.406  0.00  0.00    -0.258 N 
HETATM    9  C   UNK N   1      18.406   9.544  14.791  0.00  0.00     0.366 A 
HETATM   10  C   UNK N   1      19.601  10.584  16.566  0.00  0.00     0.349 A 
HETATM   11  C   UNK N   1      17.417   9.734  16.947  0.00  0.00     0.349 A 
HETATM   12  H   UNK N   1      18.596  10.672  18.402  0.00  0.00     0.175 HD
ENDROOT
TORSDOF 0
ENDMDL
MODEL 9
REMARK VINA RESULT:      -5.2      2.164      2.899
REMARK  0 active torsions:
REMARK  status: ('A' for Active; 'I' for Inactive)
ROOT
HETATM    1 Cl   UNK N   1      11.804  12.767  14.046  0.00  0.00     0.027 Cl
HETATM    2 Cl   UNK N   1      13.716  14.917   9.451  0.00  0.00     0.027 Cl
HETATM    3  O   UNK N   1      11.796  14.126  11.480  0.00  0.00    -0.243 OA
HETATM    4  O   UNK N   1      14.624  12.177  14.387  0.00  0.00    -0.245 OA
HETATM    5  O   UNK N   1      16.204  13.952  10.593  0.00  0.00    -0.245 OA
HETATM    6  N   UNK N   1      13.145  13.134  12.984  0.00  0.00    -0.151 N 
HETATM    7  N   UNK N   1      13.987  14.079  10.964  0.00  0.00    -0.151 N 
HETATM    8  N   UNK N   1      15.471  13.049  12.506  0.00  0.00    -0.258 N 
HETATM    9  C   UNK N   1      12.928  13.794  11.796  0.00  0.00     0.366 A 
HETATM   10  C   UNK N   1      14.421  12.763  13.335  0.00  0.00     0.349 A 
HETATM   11  C   UNK N   1      15.259  13.704  11.324  0.00  0.00     0.349 A 
HETATM   12  H   UNK N   1      16.439  12.765  12.777  0.00  0.00     0.175 HD
ENDROOT
TORSDOF 0
ENDMDL
