MODEL 1
REMARK VINA RESULT:      -5.4      0.000      0.000
REMARK  3 active torsions:
REMARK  status: ('A' for Active; 'I' for Inactive)
REMARK    1  A    between atoms: O_1  and  C_2 
REMARK    2  A    between atoms: O_11  and  C_12 
REMARK    3  A    between atoms: O_21  and  C_23 
ROOT
HETATM    1  C   UNK N   1      14.652  13.716  11.769  0.00  0.00     0.089 A 
HETATM    2  C   UNK N   1      14.788  14.061  10.422  0.00  0.00     0.063 A 
HETATM    3  C   UNK N   1      13.656  14.305   9.637  0.00  0.00     0.058 A 
HETATM    4 Cl   UNK N   1      13.857  14.737   7.946  0.00  0.00    -0.082 Cl
HETATM    5  C   UNK N   1      12.378  14.201  10.210  0.00  0.00     0.057 A 
HETATM    6 Cl   UNK N   1      10.931  14.498   9.261  0.00  0.00    -0.082 Cl
HETATM    7  C   UNK N   1      12.245  13.856  11.557  0.00  0.00     0.052 A 
HETATM    8  C   UNK N   1      13.377  13.613  12.339  0.00  0.00     0.068 A 
HETATM    9 Cl   UNK N   1      13.183  13.181  14.028  0.00  0.00    -0.081 Cl
ENDROOT
BRANCH   1  10
HETATM   10  O   UNK N   1      15.746  13.485  12.512  0.00  0.00    -0.359 OA
HETATM   11  H   UNK N   1      16.101  12.620  12.567  0.00  0.00     0.218 HD
ENDBRANCH   1  10
TORSDOF 3
ENDMDL
MODEL 2
REMARK VINA RESULT:      -5.4      2.961      3.615
REMARK  3 active torsions:
REMARK  status: ('A' for Active; 'I' for Inactive)
REMARK    1  A    between atoms: O_1  and  C_2 
REMARK    2  A    between atoms: O_11  and  C_12 
REMARK    3  A    between atoms: O_21  and  C_23 
ROOT
HETATM    1  C   UNK N   1      11.247  11.737  11.144  0.00  0.00     0.089 A 
HETATM    2  C   UNK N   1      10.780  12.944  10.620  0.00  0.00     0.063 A 
HETATM    3  C   UNK N   1      11.512  13.619   9.638  0.00  0.00     0.058 A 
HETATM    4 Cl   UNK N   1      10.900  15.136   8.997  0.00  0.00    -0.082 Cl
HETATM    5  C   UNK N   1      12.723  13.077   9.179  0.00  0.00     0.057 A 
HETATM    6 Cl   UNK N   1      13.674  13.891   7.948  0.00  0.00    -0.082 Cl
HETATM    7  C   UNK N   1      13.188  11.868   9.705  0.00  0.00     0.052 A 
HETATM    8  C   UNK N   1      12.455  11.196  10.686  0.00  0.00     0.068 A 
HETATM    9 Cl   UNK N   1      13.061   9.681  11.330  0.00  0.00    -0.081 Cl
ENDROOT
BRANCH   1  10
HETATM   10  O   UNK N   1      10.535  11.098  12.086  0.00  0.00    -0.359 OA
HETATM   11  H   UNK N   1      10.890  10.986  12.946  0.00  0.00     0.218 HD
ENDBRANCH   1  10
TORSDOF 3
ENDMDL
MODEL 3
REMARK VINA RESULT:      -5.3      2.525      2.540
REMARK  3 active torsions:
REMARK  status: ('A' for Active; 'I' for Inactive)
REMARK    1  A    between atoms: O_1  and  C_2 
REMARK    2  A    between atoms: O_11  and  C_12 
REMARK    3  A    between atoms: O_21  and  C_23 
ROOT
HETATM    1  C   UNK N   1      13.030  11.355  10.312  0.00  0.00     0.089 A 
HETATM    2  C   UNK N   1      13.591  12.166   9.321  0.00  0.00     0.063 A 
HETATM    3  C   UNK N   1      12.931  13.324   8.898  0.00  0.00     0.058 A 
HETATM    4 Cl   UNK N   1      13.660  14.323   7.650  0.00  0.00    -0.082 Cl
HETATM    5  C   UNK N   1      11.698  13.671   9.473  0.00  0.00     0.057 A 
HETATM    6 Cl   UNK N   1      10.837  15.116   8.971  0.00  0.00    -0.082 Cl
HETATM    7  C   UNK N   1      11.140  12.859  10.464  0.00  0.00     0.052 A 
HETATM    8  C   UNK N   1      11.800  11.703  10.885  0.00  0.00     0.068 A 
HETATM    9 Cl   UNK N   1      11.077  10.701  12.131  0.00  0.00    -0.081 Cl
ENDROOT
BRANCH   1  10
HETATM   10  O   UNK N   1      13.672  10.247  10.710  0.00  0.00    -0.359 OA
HETATM   11  H   UNK N   1      13.353   9.403  10.456  0.00  0.00     0.218 HD
ENDBRANCH   1  10
TORSDOF 3
ENDMDL
MODEL 4
REMARK VINA RESULT:      -5.3      3.234      4.753
REMARK  3 active torsions:
REMARK  status: ('A' for Active; 'I' for Inactive)
REMARK    1  A    between atoms: O_1  and  C_2 
REMARK    2  A    between atoms: O_11  and  C_12 
REMARK    3  A    between atoms: O_21  and  C_23 
ROOT
HETATM    1  C   UNK N   1      11.632  13.594   9.667  0.00  0.00     0.089 A 
HETATM    2  C   UNK N   1      11.130  12.739  10.652  0.00  0.00     0.063 A 
HETATM    3  C   UNK N   1      11.733  11.499  10.887  0.00  0.00     0.058 A 
HETATM    4 Cl   UNK N   1      11.080  10.445  12.131  0.00  0.00    -0.082 Cl
HETATM    5  C   UNK N   1      12.849  11.115  10.127  0.00  0.00     0.057 A 
HETATM    6 Cl   UNK N   1      13.637   9.568  10.389  0.00  0.00    -0.082 Cl
HETATM    7  C   UNK N   1      13.349  11.972   9.142  0.00  0.00     0.052 A 
HETATM    8  C   UNK N   1      12.745  13.209   8.910  0.00  0.00     0.068 A 
HETATM    9 Cl   UNK N   1      13.393  14.266   7.668  0.00  0.00    -0.081 Cl
ENDROOT
BRANCH   1  10
HETATM   10  O   UNK N   1      11.044  14.781   9.451  0.00  0.00    -0.359 OA
HETATM   11  H   UNK N   1      11.497  15.448   8.973  0.00  0.00     0.218 HD
ENDBRANCH   1  10
TORSDOF 3
ENDMDL
MODEL 5
REMARK VINA RESULT:      -5.2      4.101      5.158
REMARK  3 active torsions:
REMARK  status: ('A' for Active; 'I' for Inactive)
REMARK    1  A    between atoms: O_1  and  C_2 
REMARK    2  A    between atoms: O_11  and  C_12 
REMARK    3  A    between atoms: O_21  and  C_23 
ROOT
HETATM    1  C   UNK N   1      11.375  11.356  10.997  0.00  0.00     0.089 A 
HETATM    2  C   UNK N   1      11.755  10.098  11.471  0.00  0.00     0.063 A 
HETATM    3  C   UNK N   1      12.984   9.544  11.100  0.00  0.00     0.058 A 
HETATM    4 Cl   UNK N   1      13.435   7.960  11.712  0.00  0.00    -0.082 Cl
HETATM    5  C   UNK N   1      13.839  10.260  10.246  0.00  0.00     0.057 A 
HETATM    6 Cl   UNK N   1      15.391   9.601   9.756  0.00  0.00    -0.082 Cl
HETATM    7  C   UNK N   1      13.457  11.518   9.773  0.00  0.00     0.052 A 
HETATM    8  C   UNK N   1      12.228  12.069  10.145  0.00  0.00     0.068 A 
HETATM    9 Cl   UNK N   1      11.772  13.650   9.537  0.00  0.00    -0.081 Cl
ENDROOT
BRANCH   1  10
HETATM   10  O   UNK N   1      10.192  11.877  11.360  0.00  0.00    -0.359 OA
HETATM   11  H   UNK N   1       9.800  11.628  12.173  0.00  0.00     0.218 HD
ENDBRANCH   1  10
TORSDOF 3
ENDMDL
MODEL 6
REMARK VINA RESULT:      -5.1      3.778      4.633
REMARK  3 active torsions:
REMARK  status: ('A' for Active; 'I' for Inactive)
REMARK    1  A    between atoms: O_1  and  C_2 
REMARK    2  A    between atoms: O_11  and  C_12 
REMARK    3  A    between atoms: O_21  and  C_23 
ROOT
HETATM    1  C   UNK N   1      11.555  10.242  11.461  0.00  0.00     0.089 A 
HETATM    2  C   UNK N   1      11.401  11.631  11.450  0.00  0.00     0.063 A 
HETATM    3  C   UNK N   1      12.491  12.465  11.718  0.00  0.00     0.058 A 
HETATM    4 Cl   UNK N   1      12.267  14.208  11.697  0.00  0.00    -0.082 Cl
HETATM    5  C   UNK N   1      13.745  11.901  12.000  0.00  0.00     0.057 A 
HETATM    6 Cl   UNK N   1      15.139  12.912  12.342  0.00  0.00    -0.082 Cl
HETATM    7  C   UNK N   1      13.897  10.512  12.010  0.00  0.00     0.052 A 
HETATM    8  C   UNK N   1      12.807   9.680  11.742  0.00  0.00     0.068 A 
HETATM    9 Cl   UNK N   1      13.024   7.939  11.762  0.00  0.00    -0.081 Cl
ENDROOT
BRANCH   1  10
HETATM   10  O   UNK N   1      10.502   9.451  11.202  0.00  0.00    -0.359 OA
HETATM   11  H   UNK N   1       9.638   9.813  11.182  0.00  0.00     0.218 HD
ENDBRANCH   1  10
TORSDOF 3
ENDMDL
MODEL 7
REMARK VINA RESULT:      -5.0      2.968      4.295
REMARK  3 active torsions:
REMARK  status: ('A' for Active; 'I' for Inactive)
REMARK    1  A    between atoms: O_1  and  C_2 
REMARK    2  A    between atoms: O_11  and  C_12 
REMARK    3  A    between atoms: O_21  and  C_23 
ROOT
HETATM    1  C   UNK N   1      12.515  13.166  12.023  0.00  0.00     0.089 A 
HETATM    2  C   UNK N   1      13.185  12.200  12.778  0.00  0.00     0.063 A 
HETATM    3  C   UNK N   1      13.468  10.945  12.229  0.00  0.00     0.058 A 
HETATM    4 Cl   UNK N   1      14.311   9.749  13.202  0.00  0.00    -0.082 Cl
HETATM    5  C   UNK N   1      13.076  10.658  10.911  0.00  0.00     0.057 A 
HETATM    6 Cl   UNK N   1      13.411   9.096  10.184  0.00  0.00    -0.082 Cl
HETATM    7  C   UNK N   1      12.406  11.627  10.159  0.00  0.00     0.052 A 
HETATM    8  C   UNK N   1      12.124  12.879  10.709  0.00  0.00     0.068 A 
HETATM    9 Cl   UNK N   1      11.283  14.077   9.743  0.00  0.00    -0.081 Cl
ENDROOT
BRANCH   1  10
HETATM   10  O   UNK N   1      12.249  14.366  12.561  0.00  0.00    -0.359 OA
HETATM   11  H   UNK N   1      11.642  14.944  12.142  0.00  0.00     0.218 HD
ENDBRANCH   1  10
TORSDOF 3
ENDMDL
MODEL 8
REMARK VINA RESULT:      -5.0     13.986     15.007
REMARK  3 active torsions:
REMARK  status: ('A' for Active; 'I' for Inactive)
REMARK    1  A    between atoms: O_1  and  C_2 
REMARK    2  A    between atoms: O_11  and  C_12 
REMARK    3  A    between atoms: O_21  and  C_23 
ROOT
HETATM    1  C   UNK N   1      25.401   5.056  16.167  0.00  0.00     0.089 A 
HETATM    2  C   UNK N   1      26.118   4.711  15.019  0.00  0.00     0.063 A 
HETATM    3  C   UNK N   1      26.064   5.522  13.880  0.00  0.00     0.058 A 
HETATM    4 Cl   UNK N   1      26.977   5.063  12.451  0.00  0.00    -0.082 Cl
HETATM    5  C   UNK N   1      25.282   6.688  13.895  0.00  0.00     0.057 A 
HETATM    6 Cl   UNK N   1      25.185   7.734  12.488  0.00  0.00    -0.082 Cl
HETATM    7  C   UNK N   1      24.565   7.030  15.045  0.00  0.00     0.052 A 
HETATM    8  C   UNK N   1      24.621   6.219  16.180  0.00  0.00     0.068 A 
HETATM    9 Cl   UNK N   1      23.711   6.672  17.610  0.00  0.00    -0.081 Cl
ENDROOT
BRANCH   1  10
HETATM   10  O   UNK N   1      25.461   4.270  17.253  0.00  0.00    -0.359 OA
HETATM   11  H   UNK N   1      26.006   4.511  17.976  0.00  0.00     0.218 HD
ENDBRANCH   1  10
TORSDOF 3
ENDMDL
MODEL 9
REMARK VINA RESULT:      -5.0      3.458      3.960
REMARK  3 active torsions:
REMARK  status: ('A' for Active; 'I' for Inactive)
REMARK    1  A    between atoms: O_1  and  C_2 
REMARK    2  A    between atoms: O_11  and  C_12 
REMARK    3  A    between atoms: O_21  and  C_23 
ROOT
HETATM    1  C   UNK N   1      11.514  11.402  11.091  0.00  0.00     0.089 A 
HETATM    2  C   UNK N   1      11.858  12.450  10.234  0.00  0.00     0.063 A 
HETATM    3  C   UNK N   1      13.108  12.469   9.606  0.00  0.00     0.058 A 
HETATM    4 Cl   UNK N   1      13.513  13.800   8.533  0.00  0.00    -0.082 Cl
HETATM    5  C   UNK N   1      14.020  11.428   9.842  0.00  0.00     0.057 A 
HETATM    6 Cl   UNK N   1      15.599  11.413   9.075  0.00  0.00    -0.082 Cl
HETATM    7  C   UNK N   1      13.674  10.381  10.701  0.00  0.00     0.052 A 
HETATM    8  C   UNK N   1      12.425  10.364  11.326  0.00  0.00     0.068 A 
HETATM    9 Cl   UNK N   1      12.015   9.038  12.399  0.00  0.00    -0.081 Cl
ENDROOT
BRANCH   1  10
HETATM   10  O   UNK N   1      10.312  11.395  11.688  0.00  0.00    -0.359 OA
HETATM   11  H   UNK N   1       9.688  10.729  11.476  0.00  0.00     0.218 HD
ENDBRANCH   1  10
TORSDOF 3
ENDMDL
