MODEL 1
REMARK VINA RESULT:      -6.0      0.000      0.000
REMARK  22 active torsions:
REMARK  status: ('A' for Active; 'I' for Inactive)
REMARK    1  A    between atoms: C_2  and  C_3 
REMARK    2  A    between atoms: C_3  and  C_4 
REMARK    3  A    between atoms: C_4  and  C_5 
REMARK    4  A    between atoms: C_5  and  C_6 
REMARK    5  A    between atoms: C_6  and  C_7 
REMARK    6  A    between atoms: C_7  and  C_8 
REMARK    7  A    between atoms: C_8  and  C_9 
REMARK    8  A    between atoms: C_9  and  C_10 
REMARK    9  A    between atoms: C_10  and  C_11 
REMARK   10  A    between atoms: C_11  and  C_12 
REMARK   11  A    between atoms: C_12  and  C_13 
REMARK   12  A    between atoms: C_13  and  C_14 
REMARK   13  A    between atoms: C_14  and  C_15 
REMARK   14  A    between atoms: C_15  and  C_16 
REMARK   15  A    between atoms: C_16  and  C_17 
REMARK   16  A    between atoms: C_17  and  C_18 
REMARK   17  A    between atoms: C_18  and  C_19 
REMARK   18  A    between atoms: C_19  and  C_20 
REMARK   19  A    between atoms: C_20  and  C_21 
REMARK   20  A    between atoms: C_21  and  C_22 
REMARK   21  A    between atoms: C_22  and  C_23 
REMARK   22  A    between atoms: C_23  and  O_25 
ROOT
HETATM    1  C   UNK N   1      11.758  10.063  11.464  0.00  0.00     0.000 C 
ENDROOT
BRANCH   1   2
HETATM    2  C   UNK N   1      11.934  11.257  10.569  0.00  0.00     0.000 C 
BRANCH   2   3
HETATM    3  C   UNK N   1      10.979  12.327  11.014  0.00  0.00     0.000 C 
BRANCH   3   4
HETATM    4  C   UNK N   1      11.341  13.603  10.306  0.00  0.00     0.000 C 
BRANCH   4   5
HETATM    5  C   UNK N   1      12.254  13.267   9.160  0.00  0.00     0.000 C 
BRANCH   5   6
HETATM    6  C   UNK N   1      13.052  14.495   8.814  0.00  0.00     0.000 C 
BRANCH   6   7
HETATM    7  C   UNK N   1      14.343  14.059   8.174  0.00  0.00     0.000 C 
BRANCH   7   8
HETATM    8  C   UNK N   1      15.036  13.095   9.100  0.00  0.00     0.000 C 
BRANCH   8   9
HETATM    9  C   UNK N   1      15.892  13.878  10.061  0.00  0.00     0.000 C 
BRANCH   9  10
HETATM   10  C   UNK N   1      15.869  13.194  11.405  0.00  0.00     0.000 C 
BRANCH  10  11
HETATM   11  C   UNK N   1      14.626  13.621  12.148  0.00  0.00    -0.000 C 
BRANCH  11  12
HETATM   12  C   UNK N   1      14.183  12.498  13.058  0.00  0.00    -0.005 C 
HETATM   13  C   UNK N   1      13.061  12.991  13.943  0.00  0.00     0.005 C 
ENDBRANCH  11  12
ENDBRANCH  10  11
ENDBRANCH   9  10
ENDBRANCH   8   9
ENDBRANCH   7   8
ENDBRANCH   6   7
ENDBRANCH   5   6
ENDBRANCH   4   5
ENDBRANCH   3   4
ENDBRANCH   2   3
ENDBRANCH   1   2
BRANCH   1  14
HETATM   14  C   UNK N   1      12.964   9.180  11.310  0.00  0.00     0.000 C 
BRANCH  14  15
HETATM   15  C   UNK N   1      13.878   9.798  10.291  0.00  0.00     0.000 C 
BRANCH  15  16
HETATM   16  C   UNK N   1      15.284   9.733  10.820  0.00  0.00     0.000 C 
BRANCH  16  17
HETATM   17  C   UNK N   1      15.303   8.801  11.999  0.00  0.00     0.000 C 
BRANCH  17  18
HETATM   18  C   UNK N   1      16.735   8.459  12.312  0.00  0.00     0.000 C 
BRANCH  18  19
HETATM   19  C   UNK N   1      17.414   9.699  12.829  0.00  0.00     0.000 C 
BRANCH  19  20
HETATM   20  C   UNK N   1      17.342   9.704  14.334  0.00  0.00     0.001 C 
BRANCH  20  21
HETATM   21  C   UNK N   1      17.029  11.107  14.786  0.00  0.00     0.010 C 
BRANCH  21  22
HETATM   22  C   UNK N   1      16.245  11.054  16.080  0.00  0.00     0.110 C 
BRANCH  22  23
HETATM   23  C   UNK N   1      17.076  10.522  17.205  0.00  0.00     0.139 C 
HETATM   24  O   UNK N   1      18.126  11.076  17.486  0.00  0.00    -0.650 OA
BRANCH  23  25
HETATM   25  O   UNK N   1      16.683   9.443  17.910  0.00  0.00    -0.776 OA
HETATM   26  H   UNK N   1      16.916   9.365  18.815  0.00  0.00     0.167 HD
ENDBRANCH  23  25
ENDBRANCH  22  23
ENDBRANCH  21  22
ENDBRANCH  20  21
ENDBRANCH  19  20
ENDBRANCH  18  19
ENDBRANCH  17  18
ENDBRANCH  16  17
ENDBRANCH  15  16
ENDBRANCH  14  15
ENDBRANCH   1  14
TORSDOF 22
ENDMDL
MODEL 2
REMARK VINA RESULT:      -5.9      1.252      2.783
REMARK  22 active torsions:
REMARK  status: ('A' for Active; 'I' for Inactive)
REMARK    1  A    between atoms: C_2  and  C_3 
REMARK    2  A    between atoms: C_3  and  C_4 
REMARK    3  A    between atoms: C_4  and  C_5 
REMARK    4  A    between atoms: C_5  and  C_6 
REMARK    5  A    between atoms: C_6  and  C_7 
REMARK    6  A    between atoms: C_7  and  C_8 
REMARK    7  A    between atoms: C_8  and  C_9 
REMARK    8  A    between atoms: C_9  and  C_10 
REMARK    9  A    between atoms: C_10  and  C_11 
REMARK   10  A    between atoms: C_11  and  C_12 
REMARK   11  A    between atoms: C_12  and  C_13 
REMARK   12  A    between atoms: C_13  and  C_14 
REMARK   13  A    between atoms: C_14  and  C_15 
REMARK   14  A    between atoms: C_15  and  C_16 
REMARK   15  A    between atoms: C_16  and  C_17 
REMARK   16  A    between atoms: C_17  and  C_18 
REMARK   17  A    between atoms: C_18  and  C_19 
REMARK   18  A    between atoms: C_19  and  C_20 
REMARK   19  A    between atoms: C_20  and  C_21 
REMARK   20  A    between atoms: C_21  and  C_22 
REMARK   21  A    between atoms: C_22  and  C_23 
REMARK   22  A    between atoms: C_23  and  O_25 
ROOT
HETATM    1  C   UNK N   1      11.750  11.291  11.036  0.00  0.00     0.000 C 
ENDROOT
BRANCH   1   2
HETATM    2  C   UNK N   1      11.227  11.261  12.444  0.00  0.00     0.000 C 
BRANCH   2   3
HETATM    3  C   UNK N   1      11.704  12.497  13.153  0.00  0.00     0.000 C 
BRANCH   3   4
HETATM    4  C   UNK N   1      12.903  13.027  12.416  0.00  0.00     0.000 C 
BRANCH   4   5
HETATM    5  C   UNK N   1      14.133  12.702  13.217  0.00  0.00     0.000 C 
BRANCH   5   6
HETATM    6  C   UNK N   1      15.337  12.888  12.334  0.00  0.00     0.000 C 
BRANCH   6   7
HETATM    7  C   UNK N   1      15.434  11.706  11.407  0.00  0.00     0.000 C 
BRANCH   7   8
HETATM    8  C   UNK N   1      16.082  12.155  10.123  0.00  0.00     0.000 C 
BRANCH   8   9
HETATM    9  C   UNK N   1      15.750  13.608   9.897  0.00  0.00     0.000 C 
BRANCH   9  10
HETATM   10  C   UNK N   1      14.811  13.717   8.722  0.00  0.00     0.000 C 
BRANCH  10  11
HETATM   11  C   UNK N   1      13.623  14.558   9.123  0.00  0.00    -0.000 C 
BRANCH  11  12
HETATM   12  C   UNK N   1      12.355  13.877   8.661  0.00  0.00    -0.005 C 
HETATM   13  C   UNK N   1      11.167  14.543   9.317  0.00  0.00     0.005 C 
ENDBRANCH  11  12
ENDBRANCH  10  11
ENDBRANCH   9  10
ENDBRANCH   8   9
ENDBRANCH   7   8
ENDBRANCH   6   7
ENDBRANCH   5   6
ENDBRANCH   4   5
ENDBRANCH   3   4
ENDBRANCH   2   3
ENDBRANCH   1   2
BRANCH   1  14
HETATM   14  C   UNK N   1      12.126   9.889  10.647  0.00  0.00     0.000 C 
BRANCH  14  15
HETATM   15  C   UNK N   1      12.382   9.101  11.900  0.00  0.00     0.000 C 
BRANCH  15  16
HETATM   16  C   UNK N   1      13.329   7.983  11.565  0.00  0.00     0.000 C 
BRANCH  16  17
HETATM   17  C   UNK N   1      14.544   8.112  12.441  0.00  0.00     0.000 C 
BRANCH  17  18
HETATM   18  C   UNK N   1      14.190   8.975  13.622  0.00  0.00     0.000 C 
BRANCH  18  19
HETATM   19  C   UNK N   1      15.248   8.789  14.676  0.00  0.00     0.000 C 
BRANCH  19  20
HETATM   20  C   UNK N   1      16.104  10.028  14.732  0.00  0.00     0.001 C 
BRANCH  20  21
HETATM   21  C   UNK N   1      15.804  10.752  16.018  0.00  0.00     0.010 C 
BRANCH  21  22
HETATM   22  C   UNK N   1      17.092  11.289  16.604  0.00  0.00     0.110 C 
BRANCH  22  23
HETATM   23  C   UNK N   1      17.997  10.184  17.049  0.00  0.00     0.139 C 
HETATM   24  O   UNK N   1      19.186  10.242  16.785  0.00  0.00    -0.650 OA
BRANCH  23  25
HETATM   25  O   UNK N   1      17.518   9.127  17.735  0.00  0.00    -0.776 OA
HETATM   26  H   UNK N   1      17.648   9.073  18.662  0.00  0.00     0.167 HD
ENDBRANCH  23  25
ENDBRANCH  22  23
ENDBRANCH  21  22
ENDBRANCH  20  21
ENDBRANCH  19  20
ENDBRANCH  18  19
ENDBRANCH  17  18
ENDBRANCH  16  17
ENDBRANCH  15  16
ENDBRANCH  14  15
ENDBRANCH   1  14
TORSDOF 22
ENDMDL
MODEL 3
REMARK VINA RESULT:      -5.9      1.300      2.983
REMARK  22 active torsions:
REMARK  status: ('A' for Active; 'I' for Inactive)
REMARK    1  A    between atoms: C_2  and  C_3 
REMARK    2  A    between atoms: C_3  and  C_4 
REMARK    3  A    between atoms: C_4  and  C_5 
REMARK    4  A    between atoms: C_5  and  C_6 
REMARK    5  A    between atoms: C_6  and  C_7 
REMARK    6  A    between atoms: C_7  and  C_8 
REMARK    7  A    between atoms: C_8  and  C_9 
REMARK    8  A    between atoms: C_9  and  C_10 
REMARK    9  A    between atoms: C_10  and  C_11 
REMARK   10  A    between atoms: C_11  and  C_12 
REMARK   11  A    between atoms: C_12  and  C_13 
REMARK   12  A    between atoms: C_13  and  C_14 
REMARK   13  A    between atoms: C_14  and  C_15 
REMARK   14  A    between atoms: C_15  and  C_16 
REMARK   15  A    between atoms: C_16  and  C_17 
REMARK   16  A    between atoms: C_17  and  C_18 
REMARK   17  A    between atoms: C_18  and  C_19 
REMARK   18  A    between atoms: C_19  and  C_20 
REMARK   19  A    between atoms: C_20  and  C_21 
REMARK   20  A    between atoms: C_21  and  C_22 
REMARK   21  A    between atoms: C_22  and  C_23 
REMARK   22  A    between atoms: C_23  and  O_25 
ROOT
HETATM    1  C   UNK N   1      14.701  10.816   9.725  0.00  0.00     0.000 C 
ENDROOT
BRANCH   1   2
HETATM    2  C   UNK N   1      13.814   9.819  10.415  0.00  0.00     0.000 C 
BRANCH   2   3
HETATM    3  C   UNK N   1      12.528  10.503  10.781  0.00  0.00     0.000 C 
BRANCH   3   4
HETATM    4  C   UNK N   1      12.568  10.826  12.249  0.00  0.00     0.000 C 
BRANCH   4   5
HETATM    5  C   UNK N   1      12.135  12.254  12.432  0.00  0.00     0.000 C 
BRANCH   5   6
HETATM    6  C   UNK N   1      13.184  12.967  13.241  0.00  0.00     0.000 C 
BRANCH   6   7
HETATM    7  C   UNK N   1      13.786  14.052  12.389  0.00  0.00     0.000 C 
BRANCH   7   8
HETATM    8  C   UNK N   1      15.106  13.564  11.853  0.00  0.00     0.000 C 
BRANCH   8   9
HETATM    9  C   UNK N   1      15.326  14.168  10.489  0.00  0.00     0.000 C 
BRANCH   9  10
HETATM   10  C   UNK N   1      14.007  14.677   9.963  0.00  0.00     0.000 C 
BRANCH  10  11
HETATM   11  C   UNK N   1      13.762  14.076   8.599  0.00  0.00    -0.000 C 
BRANCH  11  12
HETATM   12  C   UNK N   1      12.383  13.460   8.570  0.00  0.00    -0.005 C 
HETATM   13  C   UNK N   1      11.448  14.297   9.414  0.00  0.00     0.005 C 
ENDBRANCH  11  12
ENDBRANCH  10  11
ENDBRANCH   9  10
ENDBRANCH   8   9
ENDBRANCH   7   8
ENDBRANCH   6   7
ENDBRANCH   5   6
ENDBRANCH   4   5
ENDBRANCH   3   4
ENDBRANCH   2   3
ENDBRANCH   1   2
BRANCH   1  14
HETATM   14  C   UNK N   1      15.941  10.102   9.267  0.00  0.00     0.000 C 
BRANCH  14  15
HETATM   15  C   UNK N   1      17.128  10.973   9.566  0.00  0.00     0.000 C 
BRANCH  15  16
HETATM   16  C   UNK N   1      18.098  10.176  10.392  0.00  0.00     0.000 C 
BRANCH  16  17
HETATM   17  C   UNK N   1      17.796  10.419  11.844  0.00  0.00     0.000 C 
BRANCH  17  18
HETATM   18  C   UNK N   1      17.386   9.113  12.470  0.00  0.00     0.000 C 
BRANCH  18  19
HETATM   19  C   UNK N   1      16.131   9.346  13.269  0.00  0.00     0.000 C 
BRANCH  19  20
HETATM   20  C   UNK N   1      16.098  10.783  13.718  0.00  0.00     0.001 C 
BRANCH  20  21
HETATM   21  C   UNK N   1      15.661  10.818  15.159  0.00  0.00     0.010 C 
BRANCH  21  22
HETATM   22  C   UNK N   1      16.297   9.664  15.905  0.00  0.00     0.110 C 
BRANCH  22  23
HETATM   23  C   UNK N   1      16.809  10.092  17.244  0.00  0.00     0.139 C 
HETATM   24  O   UNK N   1      17.067  11.268  17.438  0.00  0.00    -0.650 OA
BRANCH  23  25
HETATM   25  O   UNK N   1      16.990   9.199  18.237  0.00  0.00    -0.776 OA
HETATM   26  H   UNK N   1      16.249   8.843  18.687  0.00  0.00     0.167 HD
ENDBRANCH  23  25
ENDBRANCH  22  23
ENDBRANCH  21  22
ENDBRANCH  20  21
ENDBRANCH  19  20
ENDBRANCH  18  19
ENDBRANCH  17  18
ENDBRANCH  16  17
ENDBRANCH  15  16
ENDBRANCH  14  15
ENDBRANCH   1  14
TORSDOF 22
ENDMDL
MODEL 4
REMARK VINA RESULT:      -5.8      1.417      2.328
REMARK  22 active torsions:
REMARK  status: ('A' for Active; 'I' for Inactive)
REMARK    1  A    between atoms: C_2  and  C_3 
REMARK    2  A    between atoms: C_3  and  C_4 
REMARK    3  A    between atoms: C_4  and  C_5 
REMARK    4  A    between atoms: C_5  and  C_6 
REMARK    5  A    between atoms: C_6  and  C_7 
REMARK    6  A    between atoms: C_7  and  C_8 
REMARK    7  A    between atoms: C_8  and  C_9 
REMARK    8  A    between atoms: C_9  and  C_10 
REMARK    9  A    between atoms: C_10  and  C_11 
REMARK   10  A    between atoms: C_11  and  C_12 
REMARK   11  A    between atoms: C_12  and  C_13 
REMARK   12  A    between atoms: C_13  and  C_14 
REMARK   13  A    between atoms: C_14  and  C_15 
REMARK   14  A    between atoms: C_15  and  C_16 
REMARK   15  A    between atoms: C_16  and  C_17 
REMARK   16  A    between atoms: C_17  and  C_18 
REMARK   17  A    between atoms: C_18  and  C_19 
REMARK   18  A    between atoms: C_19  and  C_20 
REMARK   19  A    between atoms: C_20  and  C_21 
REMARK   20  A    between atoms: C_21  and  C_22 
REMARK   21  A    between atoms: C_22  and  C_23 
REMARK   22  A    between atoms: C_23  and  O_25 
ROOT
HETATM    1  C   UNK N   1      11.167  10.067  11.362  0.00  0.00     0.000 C 
ENDROOT
BRANCH   1   2
HETATM    2  C   UNK N   1      11.400  11.046  12.478  0.00  0.00     0.000 C 
BRANCH   2   3
HETATM    3  C   UNK N   1      12.405  12.062  12.015  0.00  0.00     0.000 C 
BRANCH   3   4
HETATM    4  C   UNK N   1      11.681  13.354  11.754  0.00  0.00     0.000 C 
BRANCH   4   5
HETATM    5  C   UNK N   1      11.115  13.307  10.363  0.00  0.00     0.000 C 
BRANCH   5   6
HETATM    6  C   UNK N   1      11.806  14.355   9.534  0.00  0.00     0.000 C 
BRANCH   6   7
HETATM    7  C   UNK N   1      12.499  13.673   8.385  0.00  0.00     0.000 C 
BRANCH   7   8
HETATM    8  C   UNK N   1      13.818  14.359   8.146  0.00  0.00     0.000 C 
BRANCH   8   9
HETATM    9  C   UNK N   1      14.624  14.317   9.418  0.00  0.00     0.000 C 
BRANCH   9  10
HETATM   10  C   UNK N   1      15.748  13.325   9.251  0.00  0.00     0.000 C 
BRANCH  10  11
HETATM   11  C   UNK N   1      15.610  12.249  10.302  0.00  0.00    -0.000 C 
BRANCH  11  12
HETATM   12  C   UNK N   1      15.044  11.002   9.661  0.00  0.00    -0.005 C 
HETATM   13  C   UNK N   1      16.122   9.944   9.599  0.00  0.00     0.005 C 
ENDBRANCH  11  12
ENDBRANCH  10  11
ENDBRANCH   9  10
ENDBRANCH   8   9
ENDBRANCH   7   8
ENDBRANCH   6   7
ENDBRANCH   5   6
ENDBRANCH   4   5
ENDBRANCH   3   4
ENDBRANCH   2   3
ENDBRANCH   1   2
BRANCH   1  14
HETATM   14  C   UNK N   1      12.457   9.347  11.094  0.00  0.00     0.000 C 
BRANCH  14  15
HETATM   15  C   UNK N   1      12.751   8.448  12.261  0.00  0.00     0.000 C 
BRANCH  15  16
HETATM   16  C   UNK N   1      14.244   8.346  12.410  0.00  0.00     0.000 C 
BRANCH  16  17
HETATM   17  C   UNK N   1      14.568   8.230  13.873  0.00  0.00     0.000 C 
BRANCH  17  18
HETATM   18  C   UNK N   1      15.730   9.137  14.176  0.00  0.00     0.000 C 
BRANCH  18  19
HETATM   19  C   UNK N   1      15.492  10.455  13.489  0.00  0.00     0.000 C 
BRANCH  19  20
HETATM   20  C   UNK N   1      15.382  11.536  14.532  0.00  0.00     0.001 C 
BRANCH  20  21
HETATM   21  C   UNK N   1      15.629  10.916  15.883  0.00  0.00     0.010 C 
BRANCH  21  22
HETATM   22  C   UNK N   1      16.952  11.410  16.428  0.00  0.00     0.110 C 
BRANCH  22  23
HETATM   23  C   UNK N   1      17.539  10.443  17.407  0.00  0.00     0.139 C 
HETATM   24  O   UNK N   1      16.829   9.576  17.889  0.00  0.00    -0.650 OA
BRANCH  23  25
HETATM   25  O   UNK N   1      18.837  10.515  17.763  0.00  0.00    -0.776 OA
HETATM   26  H   UNK N   1      19.490  10.698  17.116  0.00  0.00     0.167 HD
ENDBRANCH  23  25
ENDBRANCH  22  23
ENDBRANCH  21  22
ENDBRANCH  20  21
ENDBRANCH  19  20
ENDBRANCH  18  19
ENDBRANCH  17  18
ENDBRANCH  16  17
ENDBRANCH  15  16
ENDBRANCH  14  15
ENDBRANCH   1  14
TORSDOF 22
ENDMDL
MODEL 5
REMARK VINA RESULT:      -5.7      1.459      3.661
REMARK  22 active torsions:
REMARK  status: ('A' for Active; 'I' for Inactive)
REMARK    1  A    between atoms: C_2  and  C_3 
REMARK    2  A    between atoms: C_3  and  C_4 
REMARK    3  A    between atoms: C_4  and  C_5 
REMARK    4  A    between atoms: C_5  and  C_6 
REMARK    5  A    between atoms: C_6  and  C_7 
REMARK    6  A    between atoms: C_7  and  C_8 
REMARK    7  A    between atoms: C_8  and  C_9 
REMARK    8  A    between atoms: C_9  and  C_10 
REMARK    9  A    between atoms: C_10  and  C_11 
REMARK   10  A    between atoms: C_11  and  C_12 
REMARK   11  A    between atoms: C_12  and  C_13 
REMARK   12  A    between atoms: C_13  and  C_14 
REMARK   13  A    between atoms: C_14  and  C_15 
REMARK   14  A    between atoms: C_15  and  C_16 
REMARK   15  A    between atoms: C_16  and  C_17 
REMARK   16  A    between atoms: C_17  and  C_18 
REMARK   17  A    between atoms: C_18  and  C_19 
REMARK   18  A    between atoms: C_19  and  C_20 
REMARK   19  A    between atoms: C_20  and  C_21 
REMARK   20  A    between atoms: C_21  and  C_22 
REMARK   21  A    between atoms: C_22  and  C_23 
REMARK   22  A    between atoms: C_23  and  O_25 
ROOT
HETATM    1  C   UNK N   1      15.420  12.257  12.545  0.00  0.00     0.000 C 
ENDROOT
BRANCH   1   2
HETATM    2  C   UNK N   1      15.080  13.583  11.925  0.00  0.00     0.000 C 
BRANCH   2   3
HETATM    3  C   UNK N   1      13.676  13.944  12.319  0.00  0.00     0.000 C 
BRANCH   3   4
HETATM    4  C   UNK N   1      13.201  12.943  13.336  0.00  0.00     0.000 C 
BRANCH   4   5
HETATM    5  C   UNK N   1      11.733  12.703  13.114  0.00  0.00     0.000 C 
BRANCH   5   6
HETATM    6  C   UNK N   1      11.537  11.251  12.772  0.00  0.00     0.000 C 
BRANCH   6   7
HETATM    7  C   UNK N   1      11.312  11.139  11.288  0.00  0.00     0.000 C 
BRANCH   7   8
HETATM    8  C   UNK N   1      12.419  10.307  10.696  0.00  0.00     0.000 C 
BRANCH   8   9
HETATM    9  C   UNK N   1      13.085  11.098   9.600  0.00  0.00     0.000 C 
BRANCH   9  10
HETATM   10  C   UNK N   1      12.352  12.405   9.428  0.00  0.00     0.000 C 
BRANCH  10  11
HETATM   11  C   UNK N   1      13.250  13.376   8.699  0.00  0.00    -0.000 C 
BRANCH  11  12
HETATM   12  C   UNK N   1      12.521  14.688   8.522  0.00  0.00    -0.005 C 
HETATM   13  C   UNK N   1      11.199  14.622   9.252  0.00  0.00     0.005 C 
ENDBRANCH  11  12
ENDBRANCH  10  11
ENDBRANCH   9  10
ENDBRANCH   8   9
ENDBRANCH   7   8
ENDBRANCH   6   7
ENDBRANCH   5   6
ENDBRANCH   4   5
ENDBRANCH   3   4
ENDBRANCH   2   3
ENDBRANCH   1   2
BRANCH   1  14
HETATM   14  C   UNK N   1      15.780  11.303  11.442  0.00  0.00     0.000 C 
BRANCH  14  15
HETATM   15  C   UNK N   1      16.673  10.236  12.009  0.00  0.00     0.000 C 
BRANCH  15  16
HETATM   16  C   UNK N   1      15.863   8.979  12.160  0.00  0.00     0.000 C 
BRANCH  16  17
HETATM   17  C   UNK N   1      14.750   9.245  13.134  0.00  0.00     0.000 C 
BRANCH  17  18
HETATM   18  C   UNK N   1      14.874   8.271  14.276  0.00  0.00     0.000 C 
BRANCH  18  19
HETATM   19  C   UNK N   1      16.085   8.645  15.087  0.00  0.00     0.000 C 
BRANCH  19  20
HETATM   20  C   UNK N   1      15.807   9.935  15.813  0.00  0.00     0.001 C 
BRANCH  20  21
HETATM   21  C   UNK N   1      17.007  10.833  15.659  0.00  0.00     0.010 C 
BRANCH  21  22
HETATM   22  C   UNK N   1      17.155  11.691  16.897  0.00  0.00     0.110 C 
BRANCH  22  23
HETATM   23  C   UNK N   1      18.483  12.379  16.932  0.00  0.00     0.139 C 
HETATM   24  O   UNK N   1      19.443  11.801  17.413  0.00  0.00    -0.650 OA
BRANCH  23  25
HETATM   25  O   UNK N   1      18.634  13.625  16.441  0.00  0.00    -0.776 OA
HETATM   26  H   UNK N   1      18.436  13.802  15.542  0.00  0.00     0.167 HD
ENDBRANCH  23  25
ENDBRANCH  22  23
ENDBRANCH  21  22
ENDBRANCH  20  21
ENDBRANCH  19  20
ENDBRANCH  18  19
ENDBRANCH  17  18
ENDBRANCH  16  17
ENDBRANCH  15  16
ENDBRANCH  14  15
ENDBRANCH   1  14
TORSDOF 22
ENDMDL
MODEL 6
REMARK VINA RESULT:      -5.6      3.092      5.927
REMARK  22 active torsions:
REMARK  status: ('A' for Active; 'I' for Inactive)
REMARK    1  A    between atoms: C_2  and  C_3 
REMARK    2  A    between atoms: C_3  and  C_4 
REMARK    3  A    between atoms: C_4  and  C_5 
REMARK    4  A    between atoms: C_5  and  C_6 
REMARK    5  A    between atoms: C_6  and  C_7 
REMARK    6  A    between atoms: C_7  and  C_8 
REMARK    7  A    between atoms: C_8  and  C_9 
REMARK    8  A    between atoms: C_9  and  C_10 
REMARK    9  A    between atoms: C_10  and  C_11 
REMARK   10  A    between atoms: C_11  and  C_12 
REMARK   11  A    between atoms: C_12  and  C_13 
REMARK   12  A    between atoms: C_13  and  C_14 
REMARK   13  A    between atoms: C_14  and  C_15 
REMARK   14  A    between atoms: C_15  and  C_16 
REMARK   15  A    between atoms: C_16  and  C_17 
REMARK   16  A    between atoms: C_17  and  C_18 
REMARK   17  A    between atoms: C_18  and  C_19 
REMARK   18  A    between atoms: C_19  and  C_20 
REMARK   19  A    between atoms: C_20  and  C_21 
REMARK   20  A    between atoms: C_21  and  C_22 
REMARK   21  A    between atoms: C_22  and  C_23 
REMARK   22  A    between atoms: C_23  and  O_25 
ROOT
HETATM    1  C   UNK N   1      11.513  12.525  12.202  0.00  0.00     0.000 C 
ENDROOT
BRANCH   1   2
HETATM    2  C   UNK N   1      11.424  11.077  12.590  0.00  0.00     0.000 C 
BRANCH   2   3
HETATM    3  C   UNK N   1      11.447  10.248  11.338  0.00  0.00     0.000 C 
BRANCH   3   4
HETATM    4  C   UNK N   1      12.612   9.301  11.423  0.00  0.00     0.000 C 
BRANCH   4   5
HETATM    5  C   UNK N   1      13.444   9.460  10.181  0.00  0.00     0.000 C 
BRANCH   5   6
HETATM    6  C   UNK N   1      14.342  10.653  10.362  0.00  0.00     0.000 C 
BRANCH   6   7
HETATM    7  C   UNK N   1      15.201  10.423  11.575  0.00  0.00     0.000 C 
BRANCH   7   8
HETATM    8  C   UNK N   1      15.154  11.657  12.438  0.00  0.00     0.000 C 
BRANCH   8   9
HETATM    9  C   UNK N   1      14.862  11.244  13.857  0.00  0.00     0.000 C 
BRANCH   9  10
HETATM   10  C   UNK N   1      16.142  11.298  14.654  0.00  0.00     0.000 C 
BRANCH  10  11
HETATM   11  C   UNK N   1      16.443   9.918  15.188  0.00  0.00    -0.000 C 
BRANCH  11  12
HETATM   12  C   UNK N   1      15.269   9.009  14.902  0.00  0.00    -0.005 C 
HETATM   13  C   UNK N   1      15.759   7.781  14.170  0.00  0.00     0.005 C 
ENDBRANCH  11  12
ENDBRANCH  10  11
ENDBRANCH   9  10
ENDBRANCH   8   9
ENDBRANCH   7   8
ENDBRANCH   6   7
ENDBRANCH   5   6
ENDBRANCH   4   5
ENDBRANCH   3   4
ENDBRANCH   2   3
ENDBRANCH   1   2
BRANCH   1  14
HETATM   14  C   UNK N   1      10.888  12.687  10.846  0.00  0.00     0.000 C 
BRANCH  14  15
HETATM   15  C   UNK N   1      11.587  13.809  10.132  0.00  0.00     0.000 C 
BRANCH  15  16
HETATM   16  C   UNK N   1      12.345  13.226   8.972  0.00  0.00     0.000 C 
BRANCH  16  17
HETATM   17  C   UNK N   1      13.543  14.093   8.705  0.00  0.00     0.000 C 
BRANCH  17  18
HETATM   18  C   UNK N   1      14.205  14.410  10.019  0.00  0.00     0.000 C 
BRANCH  18  19
HETATM   19  C   UNK N   1      15.664  14.059   9.910  0.00  0.00     0.000 C 
BRANCH  19  20
HETATM   20  C   UNK N   1      15.929  13.495   8.538  0.00  0.00     0.001 C 
BRANCH  20  21
HETATM   21  C   UNK N   1      17.097  12.549   8.635  0.00  0.00     0.010 C 
BRANCH  21  22
HETATM   22  C   UNK N   1      18.215  13.037   7.738  0.00  0.00     0.110 C 
BRANCH  22  23
HETATM   23  C   UNK N   1      19.140  13.960   8.466  0.00  0.00     0.139 C 
HETATM   24  O   UNK N   1      19.835  13.522   9.367  0.00  0.00    -0.650 OA
BRANCH  23  25
HETATM   25  O   UNK N   1      19.217  15.266   8.140  0.00  0.00    -0.776 OA
HETATM   26  H   UNK N   1      19.872  15.561   7.539  0.00  0.00     0.167 HD
ENDBRANCH  23  25
ENDBRANCH  22  23
ENDBRANCH  21  22
ENDBRANCH  20  21
ENDBRANCH  19  20
ENDBRANCH  18  19
ENDBRANCH  17  18
ENDBRANCH  16  17
ENDBRANCH  15  16
ENDBRANCH  14  15
ENDBRANCH   1  14
TORSDOF 22
ENDMDL
MODEL 7
REMARK VINA RESULT:      -5.6      1.187      3.071
REMARK  22 active torsions:
REMARK  status: ('A' for Active; 'I' for Inactive)
REMARK    1  A    between atoms: C_2  and  C_3 
REMARK    2  A    between atoms: C_3  and  C_4 
REMARK    3  A    between atoms: C_4  and  C_5 
REMARK    4  A    between atoms: C_5  and  C_6 
REMARK    5  A    between atoms: C_6  and  C_7 
REMARK    6  A    between atoms: C_7  and  C_8 
REMARK    7  A    between atoms: C_8  and  C_9 
REMARK    8  A    between atoms: C_9  and  C_10 
REMARK    9  A    between atoms: C_10  and  C_11 
REMARK   10  A    between atoms: C_11  and  C_12 
REMARK   11  A    between atoms: C_12  and  C_13 
REMARK   12  A    between atoms: C_13  and  C_14 
REMARK   13  A    between atoms: C_14  and  C_15 
REMARK   14  A    between atoms: C_15  and  C_16 
REMARK   15  A    between atoms: C_16  and  C_17 
REMARK   16  A    between atoms: C_17  and  C_18 
REMARK   17  A    between atoms: C_18  and  C_19 
REMARK   18  A    between atoms: C_19  and  C_20 
REMARK   19  A    between atoms: C_20  and  C_21 
REMARK   20  A    between atoms: C_21  and  C_22 
REMARK   21  A    between atoms: C_22  and  C_23 
REMARK   22  A    between atoms: C_23  and  O_25 
ROOT
HETATM    1  C   UNK N   1      15.537  12.414  10.432  0.00  0.00     0.000 C 
ENDROOT
BRANCH   1   2
HETATM    2  C   UNK N   1      15.320  13.818   9.942  0.00  0.00     0.000 C 
BRANCH   2   3
HETATM    3  C   UNK N   1      14.876  13.756   8.509  0.00  0.00     0.000 C 
BRANCH   3   4
HETATM    4  C   UNK N   1      13.657  14.623   8.357  0.00  0.00     0.000 C 
BRANCH   4   5
HETATM    5  C   UNK N   1      12.443  13.736   8.342  0.00  0.00     0.000 C 
BRANCH   5   6
HETATM    6  C   UNK N   1      11.403  14.340   9.245  0.00  0.00     0.000 C 
BRANCH   6   7
HETATM    7  C   UNK N   1      11.521  13.700  10.602  0.00  0.00     0.000 C 
BRANCH   7   8
HETATM    8  C   UNK N   1      11.841  12.239  10.418  0.00  0.00     0.000 C 
BRANCH   8   9
HETATM    9  C   UNK N   1      11.342  11.480  11.620  0.00  0.00     0.000 C 
BRANCH   9  10
HETATM   10  C   UNK N   1      12.415  11.486  12.680  0.00  0.00     0.000 C 
BRANCH  10  11
HETATM   11  C   UNK N   1      13.325  10.301  12.459  0.00  0.00    -0.000 C 
BRANCH  11  12
HETATM   12  C   UNK N   1      12.503   9.033  12.483  0.00  0.00    -0.005 C 
HETATM   13  C   UNK N   1      13.166   7.996  11.606  0.00  0.00     0.005 C 
ENDBRANCH  11  12
ENDBRANCH  10  11
ENDBRANCH   9  10
ENDBRANCH   8   9
ENDBRANCH   7   8
ENDBRANCH   6   7
ENDBRANCH   5   6
ENDBRANCH   4   5
ENDBRANCH   3   4
ENDBRANCH   2   3
ENDBRANCH   1   2
BRANCH   1  14
HETATM   14  C   UNK N   1      15.619  11.508   9.236  0.00  0.00     0.000 C 
BRANCH  14  15
HETATM   15  C   UNK N   1      15.619  10.085   9.718  0.00  0.00     0.000 C 
BRANCH  15  16
HETATM   16  C   UNK N   1      16.860   9.868  10.538  0.00  0.00     0.000 C 
BRANCH  16  17
HETATM   17  C   UNK N   1      16.696   8.595  11.319  0.00  0.00     0.000 C 
BRANCH  17  18
HETATM   18  C   UNK N   1      17.347   8.773  12.664  0.00  0.00     0.000 C 
BRANCH  18  19
HETATM   19  C   UNK N   1      17.059  10.169  13.147  0.00  0.00     0.000 C 
BRANCH  19  20
HETATM   20  C   UNK N   1      16.339  10.090  14.467  0.00  0.00     0.001 C 
BRANCH  20  21
HETATM   21  C   UNK N   1      16.459  11.426  15.152  0.00  0.00     0.010 C 
BRANCH  21  22
HETATM   22  C   UNK N   1      16.095  11.277  16.614  0.00  0.00     0.110 C 
BRANCH  22  23
HETATM   23  C   UNK N   1      17.114  10.469  17.354  0.00  0.00     0.139 C 
HETATM   24  O   UNK N   1      18.259  10.883  17.437  0.00  0.00    -0.650 OA
BRANCH  23  25
HETATM   25  O   UNK N   1      16.787   9.295  17.929  0.00  0.00    -0.776 OA
HETATM   26  H   UNK N   1      17.120   9.081  18.779  0.00  0.00     0.167 HD
ENDBRANCH  23  25
ENDBRANCH  22  23
ENDBRANCH  21  22
ENDBRANCH  20  21
ENDBRANCH  19  20
ENDBRANCH  18  19
ENDBRANCH  17  18
ENDBRANCH  16  17
ENDBRANCH  15  16
ENDBRANCH  14  15
ENDBRANCH   1  14
TORSDOF 22
ENDMDL
MODEL 8
REMARK VINA RESULT:      -5.6      1.271      2.619
REMARK  22 active torsions:
REMARK  status: ('A' for Active; 'I' for Inactive)
REMARK    1  A    between atoms: C_2  and  C_3 
REMARK    2  A    between atoms: C_3  and  C_4 
REMARK    3  A    between atoms: C_4  and  C_5 
REMARK    4  A    between atoms: C_5  and  C_6 
REMARK    5  A    between atoms: C_6  and  C_7 
REMARK    6  A    between atoms: C_7  and  C_8 
REMARK    7  A    between atoms: C_8  and  C_9 
REMARK    8  A    between atoms: C_9  and  C_10 
REMARK    9  A    between atoms: C_10  and  C_11 
REMARK   10  A    between atoms: C_11  and  C_12 
REMARK   11  A    between atoms: C_12  and  C_13 
REMARK   12  A    between atoms: C_13  and  C_14 
REMARK   13  A    between atoms: C_14  and  C_15 
REMARK   14  A    between atoms: C_15  and  C_16 
REMARK   15  A    between atoms: C_16  and  C_17 
REMARK   16  A    between atoms: C_17  and  C_18 
REMARK   17  A    between atoms: C_18  and  C_19 
REMARK   18  A    between atoms: C_19  and  C_20 
REMARK   19  A    between atoms: C_20  and  C_21 
REMARK   20  A    between atoms: C_21  and  C_22 
REMARK   21  A    between atoms: C_22  and  C_23 
REMARK   22  A    between atoms: C_23  and  O_25 
ROOT
HETATM    1  C   UNK N   1      11.659  12.461  12.186  0.00  0.00     0.000 C 
ENDROOT
BRANCH   1   2
HETATM    2  C   UNK N   1      11.102  12.860  10.849  0.00  0.00     0.000 C 
BRANCH   2   3
HETATM    3  C   UNK N   1      11.689  14.189  10.468  0.00  0.00     0.000 C 
BRANCH   3   4
HETATM    4  C   UNK N   1      11.376  14.443   9.020  0.00  0.00     0.000 C 
BRANCH   4   5
HETATM    5  C   UNK N   1      12.523  13.936   8.191  0.00  0.00     0.000 C 
BRANCH   5   6
HETATM    6  C   UNK N   1      13.798  14.514   8.742  0.00  0.00     0.000 C 
BRANCH   6   7
HETATM    7  C   UNK N   1      14.706  13.378   9.131  0.00  0.00     0.000 C 
BRANCH   7   8
HETATM    8  C   UNK N   1      15.713  13.888  10.128  0.00  0.00     0.000 C 
BRANCH   8   9
HETATM    9  C   UNK N   1      15.403  13.290  11.476  0.00  0.00     0.000 C 
BRANCH   9  10
HETATM   10  C   UNK N   1      15.555  11.792  11.391  0.00  0.00     0.000 C 
BRANCH  10  11
HETATM   11  C   UNK N   1      16.969  11.468  10.973  0.00  0.00    -0.000 C 
BRANCH  11  12
HETATM   12  C   UNK N   1      17.280  10.036  11.345  0.00  0.00    -0.005 C 
HETATM   13  C   UNK N   1      16.841   9.125  10.220  0.00  0.00     0.005 C 
ENDBRANCH  11  12
ENDBRANCH  10  11
ENDBRANCH   9  10
ENDBRANCH   8   9
ENDBRANCH   7   8
ENDBRANCH   6   7
ENDBRANCH   5   6
ENDBRANCH   4   5
ENDBRANCH   3   4
ENDBRANCH   2   3
ENDBRANCH   1   2
BRANCH   1  14
HETATM   14  C   UNK N   1      11.207  11.059  12.483  0.00  0.00     0.000 C 
BRANCH  14  15
HETATM   15  C   UNK N   1      11.206  10.279  11.199  0.00  0.00     0.000 C 
BRANCH  15  16
HETATM   16  C   UNK N   1      12.471   9.469  11.142  0.00  0.00     0.000 C 
BRANCH  16  17
HETATM   17  C   UNK N   1      12.679   8.819  12.481  0.00  0.00     0.000 C 
BRANCH  17  18
HETATM   18  C   UNK N   1      14.157   8.646  12.702  0.00  0.00     0.000 C 
BRANCH  18  19
HETATM   19  C   UNK N   1      14.380   8.294  14.148  0.00  0.00     0.000 C 
BRANCH  19  20
HETATM   20  C   UNK N   1      15.837   8.487  14.478  0.00  0.00     0.001 C 
BRANCH  20  21
HETATM   21  C   UNK N   1      15.964   9.699  15.364  0.00  0.00     0.010 C 
BRANCH  21  22
HETATM   22  C   UNK N   1      17.412   9.879  15.765  0.00  0.00     0.110 C 
BRANCH  22  23
HETATM   23  C   UNK N   1      17.562   9.984  17.250  0.00  0.00     0.139 C 
HETATM   24  O   UNK N   1      16.721   9.476  17.973  0.00  0.00    -0.650 OA
BRANCH  23  25
HETATM   25  O   UNK N   1      18.610  10.630  17.799  0.00  0.00    -0.776 OA
HETATM   26  H   UNK N   1      19.188  11.130  17.257  0.00  0.00     0.167 HD
ENDBRANCH  23  25
ENDBRANCH  22  23
ENDBRANCH  21  22
ENDBRANCH  20  21
ENDBRANCH  19  20
ENDBRANCH  18  19
ENDBRANCH  17  18
ENDBRANCH  16  17
ENDBRANCH  15  16
ENDBRANCH  14  15
ENDBRANCH   1  14
TORSDOF 22
ENDMDL
MODEL 9
REMARK VINA RESULT:      -5.5      1.129      3.987
REMARK  22 active torsions:
REMARK  status: ('A' for Active; 'I' for Inactive)
REMARK    1  A    between atoms: C_2  and  C_3 
REMARK    2  A    between atoms: C_3  and  C_4 
REMARK    3  A    between atoms: C_4  and  C_5 
REMARK    4  A    between atoms: C_5  and  C_6 
REMARK    5  A    between atoms: C_6  and  C_7 
REMARK    6  A    between atoms: C_7  and  C_8 
REMARK    7  A    between atoms: C_8  and  C_9 
REMARK    8  A    between atoms: C_9  and  C_10 
REMARK    9  A    between atoms: C_10  and  C_11 
REMARK   10  A    between atoms: C_11  and  C_12 
REMARK   11  A    between atoms: C_12  and  C_13 
REMARK   12  A    between atoms: C_13  and  C_14 
REMARK   13  A    between atoms: C_14  and  C_15 
REMARK   14  A    between atoms: C_15  and  C_16 
REMARK   15  A    between atoms: C_16  and  C_17 
REMARK   16  A    between atoms: C_17  and  C_18 
REMARK   17  A    between atoms: C_18  and  C_19 
REMARK   18  A    between atoms: C_19  and  C_20 
REMARK   19  A    between atoms: C_20  and  C_21 
REMARK   20  A    between atoms: C_21  and  C_22 
REMARK   21  A    between atoms: C_22  and  C_23 
REMARK   22  A    between atoms: C_23  and  O_25 
ROOT
HETATM    1  C   UNK N   1      12.287  14.091   8.290  0.00  0.00     0.000 C 
ENDROOT
BRANCH   1   2
HETATM    2  C   UNK N   1      11.240  14.627   9.226  0.00  0.00     0.000 C 
BRANCH   2   3
HETATM    3  C   UNK N   1      10.881  13.545  10.204  0.00  0.00     0.000 C 
BRANCH   3   4
HETATM    4  C   UNK N   1      11.895  13.560  11.315  0.00  0.00     0.000 C 
BRANCH   4   5
HETATM    5  C   UNK N   1      11.739  12.298  12.116  0.00  0.00     0.000 C 
BRANCH   5   6
HETATM    6  C   UNK N   1      11.475  11.162  11.164  0.00  0.00     0.000 C 
BRANCH   6   7
HETATM    7  C   UNK N   1      12.732  10.896  10.380  0.00  0.00     0.000 C 
BRANCH   7   8
HETATM    8  C   UNK N   1      13.087   9.439  10.523  0.00  0.00     0.000 C 
BRANCH   8   9
HETATM    9  C   UNK N   1      14.419   9.332  11.218  0.00  0.00     0.000 C 
BRANCH   9  10
HETATM   10  C   UNK N   1      14.199   8.815  12.618  0.00  0.00     0.000 C 
BRANCH  10  11
HETATM   11  C   UNK N   1      14.878   7.473  12.755  0.00  0.00    -0.000 C 
BRANCH  11  12
HETATM   12  C   UNK N   1      15.911   7.551  13.855  0.00  0.00    -0.005 C 
HETATM   13  C   UNK N   1      17.069   8.404  13.388  0.00  0.00     0.005 C 
ENDBRANCH  11  12
ENDBRANCH  10  11
ENDBRANCH   9  10
ENDBRANCH   8   9
ENDBRANCH   7   8
ENDBRANCH   6   7
ENDBRANCH   5   6
ENDBRANCH   4   5
ENDBRANCH   3   4
ENDBRANCH   2   3
ENDBRANCH   1   2
BRANCH   1  14
HETATM   14  C   UNK N   1      13.613  14.677   8.686  0.00  0.00     0.000 C 
BRANCH  14  15
HETATM   15  C   UNK N   1      14.600  13.556   8.841  0.00  0.00     0.000 C 
BRANCH  15  16
HETATM   16  C   UNK N   1      15.529  13.902   9.971  0.00  0.00     0.000 C 
BRANCH  16  17
HETATM   17  C   UNK N   1      15.785  12.657  10.773  0.00  0.00     0.000 C 
BRANCH  17  18
HETATM   18  C   UNK N   1      15.483  12.951  12.218  0.00  0.00     0.000 C 
BRANCH  18  19
HETATM   19  C   UNK N   1      16.255  11.978  13.069  0.00  0.00     0.000 C 
BRANCH  19  20
HETATM   20  C   UNK N   1      15.410  11.588  14.253  0.00  0.00     0.001 C 
BRANCH  20  21
HETATM   21  C   UNK N   1      16.301  11.512  15.464  0.00  0.00     0.010 C 
BRANCH  21  22
HETATM   22  C   UNK N   1      15.941  10.286  16.277  0.00  0.00     0.110 C 
BRANCH  22  23
HETATM   23  C   UNK N   1      17.042   9.908  17.218  0.00  0.00     0.139 C 
HETATM   24  O   UNK N   1      16.771   9.296  18.238  0.00  0.00    -0.650 OA
BRANCH  23  25
HETATM   25  O   UNK N   1      18.323  10.233  16.956  0.00  0.00    -0.776 OA
HETATM   26  H   UNK N   1      18.963   9.558  16.841  0.00  0.00     0.167 HD
ENDBRANCH  23  25
ENDBRANCH  22  23
ENDBRANCH  21  22
ENDBRANCH  20  21
ENDBRANCH  19  20
ENDBRANCH  18  19
ENDBRANCH  17  18
ENDBRANCH  16  17
ENDBRANCH  15  16
ENDBRANCH  14  15
ENDBRANCH   1  14
TORSDOF 22
ENDMDL
