MODEL 1
REMARK VINA RESULT:     -10.1      0.000      0.000
REMARK  2 active torsions:
REMARK  status: ('A' for Active; 'I' for Inactive)
REMARK    1  A    between atoms: C_12  and  O_13 
REMARK    2  A    between atoms: C_23  and  O_24 
ROOT
HETATM    1  C   UNK N   1      11.498  13.123  11.875  0.00  0.00     0.018 C 
HETATM    2  C   UNK N   1      12.813  13.040  11.066  0.00  0.00    -0.014 C 
HETATM    3  C   UNK N   1      13.360  13.373  12.440  0.00  0.00     0.012 C 
HETATM    4  C   UNK N   1      13.764  12.040  13.089  0.00  0.00     0.007 C 
HETATM    5  C   UNK N   1      15.240  11.830  12.680  0.00  0.00     0.001 C 
HETATM    6  C   UNK N   1      15.205  11.644  11.162  0.00  0.00    -0.005 C 
HETATM    7  C   UNK N   1      16.626  11.886  10.676  0.00  0.00     0.008 C 
HETATM    8  C   UNK N   1      17.586  10.831  11.199  0.00  0.00     0.042 C 
HETATM    9  C   UNK N   1      17.508  10.536  12.709  0.00  0.00     0.102 A 
HETATM   10  O   UNK N   1      17.768   9.153  12.738  0.00  0.00    -0.361 OA
HETATM   11  C   UNK N   1      18.765   9.893  13.369  0.00  0.00     0.215 A 
HETATM   12  C   UNK N   1      18.673   9.550  14.827  0.00  0.00     0.091 C 
HETATM   13  C   UNK N   1      17.683  10.093  15.517  0.00  0.00     0.055 C 
HETATM   14  C   UNK N   1      17.380   9.774  16.901  0.00  0.00     0.097 C 
HETATM   15  N   UNK N   1      17.087   9.563  18.002  0.00  0.00    -0.192 NA
HETATM   16  C   UNK N   1      16.864  11.193  14.801  0.00  0.00     0.065 A 
HETATM   17  C   UNK N   1      16.116  10.800  13.520  0.00  0.00    -0.001 A 
HETATM   18  C   UNK N   1      15.289  10.904  14.808  0.00  0.00     0.019 A 
HETATM   19  C   UNK N   1      14.279  12.740  10.543  0.00  0.00     0.001 C 
HETATM   20  C   UNK N   1      14.256  12.685   9.045  0.00  0.00     0.008 C 
HETATM   21  C   UNK N   1      13.113  13.578   8.673  0.00  0.00     0.033 C 
HETATM   22  C   UNK N   1      12.523  14.111   9.970  0.00  0.00     0.126 C 
ENDROOT
BRANCH  12  23
HETATM   23  O   UNK N   1      19.563   8.716  15.405  0.00  0.00    -0.361 OA
HETATM   24  H   UNK N   1      19.776   7.891  15.013  0.00  0.00     0.217 HD
ENDBRANCH  12  23
BRANCH  22  25
HETATM   25  O   UNK N   1      11.162  14.330   9.691  0.00  0.00    -0.395 OA
HETATM   26  H   UNK N   1      10.736  15.201   9.727  0.00  0.00     0.210 HD
ENDBRANCH  22  25
TORSDOF 2
ENDMDL
MODEL 2
REMARK VINA RESULT:      -9.8      4.107      5.293
REMARK  2 active torsions:
REMARK  status: ('A' for Active; 'I' for Inactive)
REMARK    1  A    between atoms: C_12  and  O_13 
REMARK    2  A    between atoms: C_23  and  O_24 
ROOT
HETATM    1  C   UNK N   1      12.129  13.556  11.352  0.00  0.00     0.018 C 
HETATM    2  C   UNK N   1      12.649  12.139  11.016  0.00  0.00    -0.014 C 
HETATM    3  C   UNK N   1      13.258  12.928   9.874  0.00  0.00     0.012 C 
HETATM    4  C   UNK N   1      14.695  13.274  10.293  0.00  0.00     0.007 C 
HETATM    5  C   UNK N   1      15.553  12.095   9.780  0.00  0.00     0.001 C 
HETATM    6  C   UNK N   1      15.084  10.886  10.591  0.00  0.00    -0.005 C 
HETATM    7  C   UNK N   1      15.557   9.658   9.827  0.00  0.00     0.008 C 
HETATM    8  C   UNK N   1      17.074   9.568   9.792  0.00  0.00     0.042 C 
HETATM    9  C   UNK N   1      17.817  10.855   9.384  0.00  0.00     0.102 A 
HETATM   10  O   UNK N   1      18.968  10.781  10.190  0.00  0.00    -0.361 OA
HETATM   11  C   UNK N   1      19.265  10.690   8.832  0.00  0.00     0.215 A 
HETATM   12  C   UNK N   1      20.014  11.944   8.489  0.00  0.00     0.091 C 
HETATM   13  C   UNK N   1      19.310  13.058   8.371  0.00  0.00     0.055 C 
HETATM   14  C   UNK N   1      19.891  14.373   8.163  0.00  0.00     0.097 C 
HETATM   15  N   UNK N   1      20.291  15.448   7.997  0.00  0.00    -0.192 NA
HETATM   16  C   UNK N   1      17.771  12.908   8.379  0.00  0.00     0.065 A 
HETATM   17  C   UNK N   1      17.123  12.311   9.637  0.00  0.00    -0.001 A 
HETATM   18  C   UNK N   1      17.058  13.836   9.472  0.00  0.00     0.019 A 
HETATM   19  C   UNK N   1      13.522  10.875  10.621  0.00  0.00     0.001 C 
HETATM   20  C   UNK N   1      12.974   9.671  11.325  0.00  0.00     0.008 C 
HETATM   21  C   UNK N   1      11.525   9.996  11.512  0.00  0.00     0.033 C 
HETATM   22  C   UNK N   1      11.295  11.373  10.910  0.00  0.00     0.126 C 
ENDROOT
BRANCH  12  23
HETATM   23  O   UNK N   1      21.353  11.931   8.315  0.00  0.00    -0.361 OA
HETATM   24  H   UNK N   1      21.863  11.183   8.557  0.00  0.00     0.217 HD
ENDBRANCH  12  23
BRANCH  22  25
HETATM   25  O   UNK N   1      10.234  11.925  11.650  0.00  0.00    -0.395 OA
HETATM   26  H   UNK N   1      10.139  11.833  12.611  0.00  0.00     0.210 HD
ENDBRANCH  22  25
TORSDOF 2
ENDMDL
MODEL 3
REMARK VINA RESULT:      -9.5      3.924      6.797
REMARK  2 active torsions:
REMARK  status: ('A' for Active; 'I' for Inactive)
REMARK    1  A    between atoms: C_12  and  O_13 
REMARK    2  A    between atoms: C_23  and  O_24 
ROOT
HETATM    1  C   UNK N   1      21.635  12.066   9.843  0.00  0.00     0.018 C 
HETATM    2  C   UNK N   1      20.593  12.863   9.024  0.00  0.00    -0.014 C 
HETATM    3  C   UNK N   1      20.013  11.467   8.916  0.00  0.00     0.012 C 
HETATM    4  C   UNK N   1      18.945  11.346  10.015  0.00  0.00     0.007 C 
HETATM    5  C   UNK N   1      17.633  11.817   9.347  0.00  0.00     0.001 C 
HETATM    6  C   UNK N   1      17.857  13.299   9.043  0.00  0.00    -0.005 C 
HETATM    7  C   UNK N   1      16.808  13.679   8.008  0.00  0.00     0.008 C 
HETATM    8  C   UNK N   1      15.401  13.581   8.572  0.00  0.00     0.042 C 
HETATM    9  C   UNK N   1      15.063  12.278   9.322  0.00  0.00     0.102 A 
HETATM   10  O   UNK N   1      14.212  12.752  10.338  0.00  0.00    -0.361 OA
HETATM   11  C   UNK N   1      13.555  11.906   9.447  0.00  0.00     0.215 A 
HETATM   12  C   UNK N   1      13.217  10.669  10.227  0.00  0.00     0.091 C 
HETATM   13  C   UNK N   1      14.201   9.821  10.475  0.00  0.00     0.055 C 
HETATM   14  C   UNK N   1      14.072   8.642  11.314  0.00  0.00     0.097 C 
HETATM   15  N   UNK N   1      14.034   7.689  11.970  0.00  0.00    -0.192 NA
HETATM   16  C   UNK N   1      15.540  10.084   9.747  0.00  0.00     0.065 A 
HETATM   17  C   UNK N   1      16.253  11.414  10.030  0.00  0.00    -0.001 A 
HETATM   18  C   UNK N   1      16.790  10.166  10.745  0.00  0.00     0.019 A 
HETATM   19  C   UNK N   1      19.269  13.473   8.400  0.00  0.00     0.001 C 
HETATM   20  C   UNK N   1      19.538  14.889   7.989  0.00  0.00     0.008 C 
HETATM   21  C   UNK N   1      21.006  14.903   7.694  0.00  0.00     0.033 C 
HETATM   22  C   UNK N   1      21.525  13.496   7.946  0.00  0.00     0.126 C 
ENDROOT
BRANCH  12  23
HETATM   23  O   UNK N   1      11.959  10.440  10.661  0.00  0.00    -0.361 OA
HETATM   24  H   UNK N   1      11.218  10.658  10.129  0.00  0.00     0.217 HD
ENDBRANCH  12  23
BRANCH  22  25
HETATM   25  O   UNK N   1      22.866  13.664   8.336  0.00  0.00    -0.395 OA
HETATM   26  H   UNK N   1      23.442  12.937   8.619  0.00  0.00     0.210 HD
ENDBRANCH  22  25
TORSDOF 2
ENDMDL
MODEL 4
REMARK VINA RESULT:      -9.0      7.799     11.236
REMARK  2 active torsions:
REMARK  status: ('A' for Active; 'I' for Inactive)
REMARK    1  A    between atoms: C_12  and  O_13 
REMARK    2  A    between atoms: C_23  and  O_24 
ROOT
HETATM    1  C   UNK N   1      26.786   6.763  11.947  0.00  0.00     0.018 C 
HETATM    2  C   UNK N   1      26.137   6.587  13.340  0.00  0.00    -0.014 C 
HETATM    3  C   UNK N   1      26.537   8.048  13.409  0.00  0.00     0.012 C 
HETATM    4  C   UNK N   1      25.295   8.864  13.018  0.00  0.00     0.007 C 
HETATM    5  C   UNK N   1      24.554   9.124  14.350  0.00  0.00     0.001 C 
HETATM    6  C   UNK N   1      24.102   7.742  14.824  0.00  0.00    -0.005 C 
HETATM    7  C   UNK N   1      23.783   7.888  16.305  0.00  0.00     0.008 C 
HETATM    8  C   UNK N   1      22.599   8.812  16.536  0.00  0.00     0.042 C 
HETATM    9  C   UNK N   1      22.639  10.161  15.791  0.00  0.00     0.102 A 
HETATM   10  O   UNK N   1      21.278  10.356  15.493  0.00  0.00    -0.361 OA
HETATM   11  C   UNK N   1      21.771  11.315  16.374  0.00  0.00     0.215 A 
HETATM   12  C   UNK N   1      21.761  12.613  15.620  0.00  0.00     0.091 C 
HETATM   13  C   UNK N   1      22.711  12.798  14.718  0.00  0.00     0.055 C 
HETATM   14  C   UNK N   1      22.775  13.938  13.822  0.00  0.00     0.097 C 
HETATM   15  N   UNK N   1      22.883  14.822  13.080  0.00  0.00    -0.192 NA
HETATM   16  C   UNK N   1      23.854  11.757  14.696  0.00  0.00     0.065 A 
HETATM   17  C   UNK N   1      23.481  10.298  14.399  0.00  0.00    -0.001 A 
HETATM   18  C   UNK N   1      24.087  11.113  13.248  0.00  0.00     0.019 A 
HETATM   19  C   UNK N   1      25.294   6.743  14.674  0.00  0.00     0.001 C 
HETATM   20  C   UNK N   1      24.964   5.379  15.198  0.00  0.00     0.008 C 
HETATM   21  C   UNK N   1      26.084   4.522  14.695  0.00  0.00     0.033 C 
HETATM   22  C   UNK N   1      27.014   5.425  13.900  0.00  0.00     0.126 C 
ENDROOT
BRANCH  12  23
HETATM   23  O   UNK N   1      20.814  13.547  15.853  0.00  0.00    -0.361 OA
HETATM   24  H   UNK N   1      20.112  13.684  15.246  0.00  0.00     0.217 HD
ENDBRANCH  12  23
BRANCH  22  25
HETATM   25  O   UNK N   1      27.596   4.591  12.929  0.00  0.00    -0.395 OA
HETATM   26  H   UNK N   1      27.662   4.819  11.989  0.00  0.00     0.210 HD
ENDBRANCH  22  25
TORSDOF 2
ENDMDL
MODEL 5
REMARK VINA RESULT:      -8.9      3.856      6.557
REMARK  2 active torsions:
REMARK  status: ('A' for Active; 'I' for Inactive)
REMARK    1  A    between atoms: C_12  and  O_13 
REMARK    2  A    between atoms: C_23  and  O_24 
ROOT
HETATM    1  C   UNK N   1      20.568  11.634  10.002  0.00  0.00     0.018 C 
HETATM    2  C   UNK N   1      19.585  12.533   9.217  0.00  0.00    -0.014 C 
HETATM    3  C   UNK N   1      18.866  11.202   9.127  0.00  0.00     0.012 C 
HETATM    4  C   UNK N   1      17.827  11.184  10.259  0.00  0.00     0.007 C 
HETATM    5  C   UNK N   1      16.547  11.785   9.633  0.00  0.00     0.001 C 
HETATM    6  C   UNK N   1      16.907  13.239   9.323  0.00  0.00    -0.005 C 
HETATM    7  C   UNK N   1      15.870  13.725   8.321  0.00  0.00     0.008 C 
HETATM    8  C   UNK N   1      14.478  13.765   8.929  0.00  0.00     0.042 C 
HETATM    9  C   UNK N   1      14.036  12.499   9.689  0.00  0.00     0.102 A 
HETATM   10  O   UNK N   1      13.269  13.052  10.731  0.00  0.00    -0.361 OA
HETATM   11  C   UNK N   1      12.503  12.279   9.862  0.00  0.00     0.215 A 
HETATM   12  C   UNK N   1      12.069  11.079  10.651  0.00  0.00     0.091 C 
HETATM   13  C   UNK N   1      12.971  10.135  10.868  0.00  0.00     0.055 C 
HETATM   14  C   UNK N   1      12.751   8.973  11.710  0.00  0.00     0.097 C 
HETATM   15  N   UNK N   1      12.640   8.025  12.367  0.00  0.00    -0.192 NA
HETATM   16  C   UNK N   1      14.306  10.267  10.098  0.00  0.00     0.065 A 
HETATM   17  C   UNK N   1      15.156  11.518  10.359  0.00  0.00    -0.001 A 
HETATM   18  C   UNK N   1      15.588  10.221  11.056  0.00  0.00     0.019 A 
HETATM   19  C   UNK N   1      18.309  13.274   8.635  0.00  0.00     0.001 C 
HETATM   20  C   UNK N   1      18.704  14.658   8.216  0.00  0.00     0.008 C 
HETATM   21  C   UNK N   1      20.156  14.527   7.875  0.00  0.00     0.033 C 
HETATM   22  C   UNK N   1      20.541  13.074   8.111  0.00  0.00     0.126 C 
ENDROOT
BRANCH  12  23
HETATM   23  O   UNK N   1      10.808  10.974  11.125  0.00  0.00    -0.361 OA
HETATM   24  H   UNK N   1      10.640  10.952  12.047  0.00  0.00     0.217 HD
ENDBRANCH  12  23
BRANCH  22  25
HETATM   25  O   UNK N   1      21.903  13.107   8.458  0.00  0.00    -0.395 OA
HETATM   26  H   UNK N   1      22.282  13.720   9.107  0.00  0.00     0.210 HD
ENDBRANCH  22  25
TORSDOF 2
ENDMDL
MODEL 6
REMARK VINA RESULT:      -8.8      2.336      3.793
REMARK  2 active torsions:
REMARK  status: ('A' for Active; 'I' for Inactive)
REMARK    1  A    between atoms: C_12  and  O_13 
REMARK    2  A    between atoms: C_23  and  O_24 
ROOT
HETATM    1  C   UNK N   1      14.891  11.037  10.023  0.00  0.00     0.018 C 
HETATM    2  C   UNK N   1      14.516  11.277  11.504  0.00  0.00    -0.014 C 
HETATM    3  C   UNK N   1      15.349  10.018  11.635  0.00  0.00     0.012 C 
HETATM    4  C   UNK N   1      16.772  10.466  12.001  0.00  0.00     0.007 C 
HETATM    5  C   UNK N   1      16.793  10.500  13.547  0.00  0.00     0.001 C 
HETATM    6  C   UNK N   1      15.816  11.613  13.928  0.00  0.00    -0.005 C 
HETATM    7  C   UNK N   1      15.466  11.384  15.391  0.00  0.00     0.008 C 
HETATM    8  C   UNK N   1      16.675  11.569  16.293  0.00  0.00     0.042 C 
HETATM    9  C   UNK N   1      17.960  10.838  15.858  0.00  0.00     0.102 A 
HETATM   10  O   UNK N   1      18.951  11.755  16.253  0.00  0.00    -0.361 OA
HETATM   11  C   UNK N   1      19.022  10.560  16.964  0.00  0.00     0.215 A 
HETATM   12  C   UNK N   1      20.300   9.900  16.535  0.00  0.00     0.091 C 
HETATM   13  C   UNK N   1      20.314   9.320  15.346  0.00  0.00     0.055 C 
HETATM   14  C   UNK N   1      21.498   8.745  14.732  0.00  0.00     0.097 C 
HETATM   15  N   UNK N   1      22.404   8.269  14.188  0.00  0.00    -0.192 NA
HETATM   16  C   UNK N   1      18.953   9.190  14.624  0.00  0.00     0.065 A 
HETATM   17  C   UNK N   1      18.204  10.486  14.283  0.00  0.00    -0.001 A 
HETATM   18  C   UNK N   1      18.968   9.799  13.143  0.00  0.00     0.019 A 
HETATM   19  C   UNK N   1      14.514  11.452  13.080  0.00  0.00     0.001 C 
HETATM   20  C   UNK N   1      13.464  12.455  13.452  0.00  0.00     0.008 C 
HETATM   21  C   UNK N   1      12.453  12.339  12.353  0.00  0.00     0.033 C 
HETATM   22  C   UNK N   1      12.961  11.275  11.391  0.00  0.00     0.126 C 
ENDROOT
BRANCH  12  23
HETATM   23  O   UNK N   1      21.391   9.908  17.331  0.00  0.00    -0.361 OA
HETATM   24  H   UNK N   1      22.251   9.817  16.971  0.00  0.00     0.217 HD
ENDBRANCH  12  23
BRANCH  22  25
HETATM   25  O   UNK N   1      12.449  11.643  10.134  0.00  0.00    -0.395 OA
HETATM   26  H   UNK N   1      11.680  12.221  10.010  0.00  0.00     0.210 HD
ENDBRANCH  22  25
TORSDOF 2
ENDMDL
MODEL 7
REMARK VINA RESULT:      -8.8      4.239      6.590
REMARK  2 active torsions:
REMARK  status: ('A' for Active; 'I' for Inactive)
REMARK    1  A    between atoms: C_12  and  O_13 
REMARK    2  A    between atoms: C_23  and  O_24 
ROOT
HETATM    1  C   UNK N   1      19.011  14.992   7.570  0.00  0.00     0.018 C 
HETATM    2  C   UNK N   1      19.256  13.589   8.173  0.00  0.00    -0.014 C 
HETATM    3  C   UNK N   1      18.252  14.139   9.166  0.00  0.00     0.012 C 
HETATM    4  C   UNK N   1      16.871  13.627   8.727  0.00  0.00     0.007 C 
HETATM    5  C   UNK N   1      16.692  12.282   9.469  0.00  0.00     0.001 C 
HETATM    6  C   UNK N   1      17.765  11.364   8.882  0.00  0.00    -0.005 C 
HETATM    7  C   UNK N   1      17.924  10.217   9.870  0.00  0.00     0.008 C 
HETATM    8  C   UNK N   1      16.662   9.374   9.959  0.00  0.00     0.042 C 
HETATM    9  C   UNK N   1      15.343  10.150  10.143  0.00  0.00     0.102 A 
HETATM   10  O   UNK N   1      14.449   9.364   9.394  0.00  0.00    -0.361 OA
HETATM   11  C   UNK N   1      14.142   9.367  10.752  0.00  0.00     0.215 A 
HETATM   12  C   UNK N   1      12.839  10.101  10.879  0.00  0.00     0.091 C 
HETATM   13  C   UNK N   1      12.873  11.419  10.773  0.00  0.00     0.055 C 
HETATM   14  C   UNK N   1      11.694  12.267  10.752  0.00  0.00     0.097 C 
HETATM   15  N   UNK N   1      10.795  12.998  10.728  0.00  0.00    -0.192 NA
HETATM   16  C   UNK N   1      14.273  12.075  10.753  0.00  0.00     0.065 A 
HETATM   17  C   UNK N   1      15.222  11.689   9.610  0.00  0.00    -0.001 A 
HETATM   18  C   UNK N   1      14.497  13.036   9.492  0.00  0.00     0.019 A 
HETATM   19  C   UNK N   1      19.115  12.146   8.815  0.00  0.00     0.001 C 
HETATM   20  C   UNK N   1      20.246  11.290   8.330  0.00  0.00     0.008 C 
HETATM   21  C   UNK N   1      21.342  12.271   8.049  0.00  0.00     0.033 C 
HETATM   22  C   UNK N   1      20.800  13.652   8.383  0.00  0.00     0.126 C 
ENDROOT
BRANCH  12  23
HETATM   23  O   UNK N   1      11.682   9.437  11.087  0.00  0.00    -0.361 OA
HETATM   24  H   UNK N   1      11.268   8.961  10.393  0.00  0.00     0.217 HD
ENDBRANCH  12  23
BRANCH  22  25
HETATM   25  O   UNK N   1      21.487  14.532   7.527  0.00  0.00    -0.395 OA
HETATM   26  H   UNK N   1      22.298  15.003   7.773  0.00  0.00     0.210 HD
ENDBRANCH  22  25
TORSDOF 2
ENDMDL
MODEL 8
REMARK VINA RESULT:      -8.8      6.504     10.644
REMARK  2 active torsions:
REMARK  status: ('A' for Active; 'I' for Inactive)
REMARK    1  A    between atoms: C_12  and  O_13 
REMARK    2  A    between atoms: C_23  and  O_24 
ROOT
HETATM    1  C   UNK N   1      25.383   5.112  15.258  0.00  0.00     0.018 C 
HETATM    2  C   UNK N   1      25.768   6.461  14.609  0.00  0.00    -0.014 C 
HETATM    3  C   UNK N   1      24.278   6.441  14.329  0.00  0.00     0.012 C 
HETATM    4  C   UNK N   1      23.608   7.255  15.447  0.00  0.00     0.007 C 
HETATM    5  C   UNK N   1      23.570   8.706  14.913  0.00  0.00     0.001 C 
HETATM    6  C   UNK N   1      25.037   9.126  14.813  0.00  0.00    -0.005 C 
HETATM    7  C   UNK N   1      25.066  10.336  13.890  0.00  0.00     0.008 C 
HETATM    8  C   UNK N   1      24.336  11.523  14.497  0.00  0.00     0.042 C 
HETATM    9  C   UNK N   1      22.934  11.234  15.068  0.00  0.00     0.102 A 
HETATM   10  O   UNK N   1      22.901  12.098  16.179  0.00  0.00    -0.361 OA
HETATM   11  C   UNK N   1      21.965  12.445  15.207  0.00  0.00     0.215 A 
HETATM   12  C   UNK N   1      20.619  12.180  15.817  0.00  0.00     0.091 C 
HETATM   13  C   UNK N   1      20.228  10.918  15.897  0.00  0.00     0.055 C 
HETATM   14  C   UNK N   1      19.015  10.481  16.565  0.00  0.00     0.097 C 
HETATM   15  N   UNK N   1      18.063  10.067  17.080  0.00  0.00    -0.192 NA
HETATM   16  C   UNK N   1      21.097   9.877  15.155  0.00  0.00     0.065 A 
HETATM   17  C   UNK N   1      22.562   9.733  15.592  0.00  0.00    -0.001 A 
HETATM   18  C   UNK N   1      21.574   8.673  16.097  0.00  0.00     0.019 A 
HETATM   19  C   UNK N   1      25.846   7.973  14.138  0.00  0.00     0.001 C 
HETATM   20  C   UNK N   1      27.284   8.337  13.921  0.00  0.00     0.008 C 
HETATM   21  C   UNK N   1      27.932   7.036  13.565  0.00  0.00     0.033 C 
HETATM   22  C   UNK N   1      26.844   5.973  13.591  0.00  0.00     0.126 C 
ENDROOT
BRANCH  12  23
HETATM   23  O   UNK N   1      19.847  13.190  16.270  0.00  0.00    -0.361 OA
HETATM   24  H   UNK N   1      20.231  13.968  16.626  0.00  0.00     0.217 HD
ENDBRANCH  12  23
BRANCH  22  25
HETATM   25  O   UNK N   1      27.503   4.781  13.940  0.00  0.00    -0.395 OA
HETATM   26  H   UNK N   1      28.301   4.745  14.490  0.00  0.00     0.210 HD
ENDBRANCH  22  25
TORSDOF 2
ENDMDL
MODEL 9
REMARK VINA RESULT:      -8.8      1.804      3.092
REMARK  2 active torsions:
REMARK  status: ('A' for Active; 'I' for Inactive)
REMARK    1  A    between atoms: C_12  and  O_13 
REMARK    2  A    between atoms: C_23  and  O_24 
ROOT
HETATM    1  C   UNK N   1      15.896  13.555   8.434  0.00  0.00     0.018 C 
HETATM    2  C   UNK N   1      14.827  13.366   9.535  0.00  0.00    -0.014 C 
HETATM    3  C   UNK N   1      15.547  12.035   9.624  0.00  0.00     0.012 C 
HETATM    4  C   UNK N   1      16.579  12.166  10.755  0.00  0.00     0.007 C 
HETATM    5  C   UNK N   1      15.831  11.715  12.031  0.00  0.00     0.001 C 
HETATM    6  C   UNK N   1      14.740  12.766  12.239  0.00  0.00    -0.005 C 
HETATM    7  C   UNK N   1      13.724  12.138  13.182  0.00  0.00     0.008 C 
HETATM    8  C   UNK N   1      14.318  11.881  14.557  0.00  0.00     0.042 C 
HETATM    9  C   UNK N   1      15.684  11.168  14.580  0.00  0.00     0.102 A 
HETATM   10  O   UNK N   1      16.305  11.786  15.681  0.00  0.00    -0.361 OA
HETATM   11  C   UNK N   1      16.073  10.429  15.895  0.00  0.00     0.215 A 
HETATM   12  C   UNK N   1      17.427   9.783  15.943  0.00  0.00     0.091 C 
HETATM   13  C   UNK N   1      18.055   9.604  14.793  0.00  0.00     0.055 C 
HETATM   14  C   UNK N   1      19.414   9.107  14.673  0.00  0.00     0.097 C 
HETATM   15  N   UNK N   1      20.493   8.716  14.509  0.00  0.00    -0.192 NA
HETATM   16  C   UNK N   1      17.237   9.876  13.509  0.00  0.00     0.065 A 
HETATM   17  C   UNK N   1      16.692  11.296  13.302  0.00  0.00    -0.001 A 
HETATM   18  C   UNK N   1      17.953  10.909  12.517  0.00  0.00     0.019 A 
HETATM   19  C   UNK N   1      14.037  13.041  10.871  0.00  0.00     0.001 C 
HETATM   20  C   UNK N   1      12.893  14.000  11.001  0.00  0.00     0.008 C 
HETATM   21  C   UNK N   1      12.565  14.358   9.585  0.00  0.00     0.033 C 
HETATM   22  C   UNK N   1      13.533  13.593   8.695  0.00  0.00     0.126 C 
ENDROOT
BRANCH  12  23
HETATM   23  O   UNK N   1      17.979   9.406  17.117  0.00  0.00    -0.361 OA
HETATM   24  H   UNK N   1      17.676   9.763  17.929  0.00  0.00     0.217 HD
ENDBRANCH  12  23
BRANCH  22  25
HETATM   25  O   UNK N   1      13.693  14.395   7.551  0.00  0.00    -0.395 OA
HETATM   26  H   UNK N   1      14.080  14.080   6.720  0.00  0.00     0.210 HD
ENDBRANCH  22  25
TORSDOF 2
ENDMDL
